$pyNastran: version=msc
$pyNastran: punch=False
$pyNastran: encoding=utf-8
$pyNastran: nnodes=14494
$pyNastran: nelements=14976
$EXECUTIVE CONTROL DECK
SOL 106
include '..\..\resources\kllrh_lowest_eigenvalues_nobuckle.dmap'
CEND
$CASE CONTROL DECK
DISPLACEMENT(PLOT) = ALL
ECHO = NONE
METHOD = 21
NLPARM = 1
NLSTRESS(PLOT) = ALL
OLOAD(PLOT) = ALL
SPC = 1
SUBCASE 1
    LOAD = 11
BEGIN BULK
$PARAMS
PARAM     BMODES      20
PARAM     BUCKLE       2
PARAM     LGDISP       1
PARAM       POST       1
$NODES
GRID           1         4.28-14-3.391-5385.4999
GRID           2        2.853-142.7127-5256.9999
GRID           3        2.853-14163.2223256.9999
GRID           4         4.28-14163.2222385.4999
GRID           5        1.427-142.7127-5128.4999
GRID           6        1.427-14163.2223128.4999
GRID           7              0.2.7127-5-8.161-5
GRID           8              0.163.2223-6.529-5
GRID           9        -1.43-142.7127-5  -128.5
GRID          10        -1.43-14163.2223  -128.5
GRID          11        -2.85-142.7127-5   -257.
GRID          12        -2.85-14163.2223   -257.
GRID          13        -4.28-148.8162-5  -385.5
GRID          14        -4.28-14163.2223  -385.5
GRID          15        2.853-14326.4444256.9999
GRID          16         4.28-14326.4444385.4999
GRID          17        1.427-14326.4445   128.5
GRID          18              0.326.4445-4.897-5
GRID          19        -1.43-14326.4445  -128.5
GRID          20        -2.85-14326.4445   -257.
$ ... 14474 like lines cut
$ELEMENTS
CQUAD4         1       1       1       2       3       4
CQUAD4         2       1       2       5       6       3
CQUAD4         3       1       5       7       8       6
CQUAD4         4       1       7       9      10       8
CQUAD4         5       1       9      11      12      10
CQUAD4         6       1      11      13      14      12
CQUAD4         7       1       4       3      15      16
CQUAD4         8       1       3       6      17      15
CQUAD4         9       1       6       8      18      17
CQUAD4        10       1       8      10      19      18
CQUAD4        11       1      10      12      20      19
CQUAD4        12       1      12      14      21      20
CQUAD4        13       1      16      15      22      23
CQUAD4        14       1      15      17      24      22
CQUAD4        15       1      17      18      25      24
CQUAD4        16       1      18      19      26      25
CQUAD4        17       1      19      20      27      26
CQUAD4        18       1      20      21      28      27
CQUAD4        19       1      23      22      29      30
CQUAD4        20       1      22      24      31      29
$ ... 14956 like lines cut
$PROPERTIES
PSHELL         1       16.840352       1               1
          -3.855   3.855
$MATERIALS
MAT1           1  73100.              .3  2.78-9
$RIGID ELEMENTS
RBE3       14977           14494  123456      1.  123456   11692      1.
          123456   11693      1.  123456   11694      1.  123456   11695
              1.  123456   11696      1.  123456   11697      1.  123456
           11698      1.  123456   11762      1.  123456   11763      1.
          123456   11764      1.  123456   11765      1.  123456   11766
              1.  123456   11767      1.  123456   11768      1.  123456
           11841      1.  123456   11842      1.  123456   11843      1.
          123456   11844      1.  123456   11845      1.  123456   11846
              1.  123456   11847      1.  123456   11848      1.  123456
           11921      1.  123456   11922      1.  123456   11923      1.
          123456   11924      1.  123456   11925      1.  123456   11926
              1.  123456   11927      1.  123456   11928      1.  123456
           11992      1.  123456   11993      1.  123456   11994      1.
          123456   11995      1.  123456   11996      1.  123456   11997
              1.  123456   11998      1.  123456   12111      1.  123456
           12112      1.  123456   12113      1.  123456   12114      1.
          123456   12115      1.  123456   12116      1.  123456   12117
              1.  123456   12118      1.  123456   12191      1.  123456
           12192      1.  123456   12193      1.  123456   12194      1.
          123456   12195      1.  123456   12196      1.  123456   12197
              1.  123456   12198      1.  123456   12262      1.  123456
           12263      1.  123456   12264      1.  123456   12265      1.
          123456   12266      1.  123456   12267      1.  123456   12268
$LOADS
FORCE         11   14494          12419.      0.      0.      1.
$DYNAMIC
EIGRL         21                      20
NLPARM         1                    ITER       1       2             YES
                    .001.0000001
              20
NLPCI          1    CRIS     .01      4.      0.               2     100
$SPCs
SPC1           1  123456       1       2       5       7       9      11
              13      78      79      82      84      86      88      90
             155     156     159     161     163     165     167     169
             243     244     247     249     251     253     255     257
             331     333     335     337     339     341     343     408
             409     430     431     452     454     456     458     460
             462     464     466     540     542     544     546     548
             550     552     554     628     630     632     634     636
             638     640     705     707     727     729   12309   12310
           12311   12312   12313   12314   12315   12316   12317   12318
           12319   12320   12321   12322   12323   12324   12325   12326
           12327   12328   12329   12330   12331   12332   12333   12334
           12335   12336   12337   12338   12339   12340   12341   12342
           12343   12344   12345   12346   12347   12348   12349   12350
           12351   12352   12353   12354   12355   12356   12357   12358
           12359   12360   12361   12362   12363   12364   12365   12366
           12367   12368   12369   12370   12371   12372   12373   12374
           12375   12376   12377   12378   12379   12380   12381   12382
           12383   12384   12385   12386   12387   12388   12389   12390
           12391   12392   12393   12394   12395   12396   12397   12398
           12399   12400   12401   12402   12403   12404   12405   12406
           12407   12408   12409   12410   12411   12412   12413   12414
           12415   12416   12417   12418   12419   12420   12421   12422
           12423
