$pyNastran: version=msc
$pyNastran: punch=False
$pyNastran: encoding=utf-8
$pyNastran: nnodes=19301
$pyNastran: nelements=19200
$EXECUTIVE CONTROL DECK
SOL 106
CEND
$CASE CONTROL DECK
DISPLACEMENT(PLOT) = ALL
ECHO = NONE
NLPARM = 1
OLOAD(PLOT) = ALL
SPC = 1
SPCFORCES(PLOT) = ALL
TITLE = Nonlinear buckling analysis of a column
SUBCASE 1
    LOAD = 10
    METHOD = 11
    SUBTITLE = Application of uniform vertical load
BEGIN BULK
$PARAMS
PARAM     BUCKLE       2
PARAM     LGDISP       1
PARAM       POST       1
$NODES
GRID           1              0.      0.    100.
GRID           2              0. 23.4375    100.
GRID           3              0.  46.875    100.
GRID           4              0. 70.3125    100.
GRID           5              0.   93.75    100.
GRID           6              0.117.1875    100.
GRID           7              0. 140.625    100.
GRID           8              0.164.0625    100.
GRID           9              0.   187.5    100.
GRID          10              0.210.9375    100.
GRID          11              0. 234.375    100.
GRID          12              0.257.8125    100.
GRID          13              0.  281.25    100.
GRID          14              0.304.6875    100.
GRID          15              0. 328.125    100.
GRID          16              0.351.5625    100.
GRID          17              0.    375.    100.
GRID          18              0.398.4375    100.
GRID          19              0. 421.875    100.
GRID          20              0.445.3125    100.
$ ... 19281 like lines cut
$ELEMENTS
CQUAD4         1       1       1       2     195     194
CQUAD4         2       1     194     195     388     387
CQUAD4         3       1     387     388     581     580
CQUAD4         4       1     580     581     774     773
CQUAD4         5       1     773     774     967     966
CQUAD4         6       1     966     967    1160    1159
CQUAD4         7       1    1159    1160    1353    1352
CQUAD4         8       1    1352    1353    1546    1545
CQUAD4         9       1    1545    1546    1739    1738
CQUAD4        10       1    1738    1739    1932    1931
CQUAD4        11       1    1931    1932    2125    2124
CQUAD4        12       1    2124    2125    2318    2317
CQUAD4        13       1    2317    2318    2511    2510
CQUAD4        14       1    2510    2511    2704    2703
CQUAD4        15       1    2703    2704    2897    2896
CQUAD4        16       1    2896    2897    3090    3089
CQUAD4        17       1    3089    3090    3283    3282
CQUAD4        18       1    3282    3283    3476    3475
CQUAD4        19       1    3475    3476    3669    3668
CQUAD4        20       1    3668    3669    3862    3861
$ ... 19180 like lines cut
$PROPERTIES
PSHELL         1       1      4.       1               1
$MATERIALS
MAT1           1  73100.              .3  2.78-9
$RIGID ELEMENTS
RBE2       19201   19301  123456     193     386     579     772     965
            1158    1351    1544    1737    1930    2123    2316    2509
            2702    2895    3088    3281    3474    3667    3860    4053
            4246    4439    4632    4825    5018    5211    5404    5597
            5790    5983    6176    6369    6562    6755    6948    7141
            7334    7527    7720    7913    8106    8299    8492    8685
            8878    9071    9264    9457    9650    9843   10036   10229
           10422   10615   10808   11001   11194   11387   11580   11773
           11966   12159   12352   12545   12738   12931   13124   13317
           13510   13703   13896   14089   14282   14475   14668   14861
           15054   15247   15440   15633   15826   16019   16212   16405
           16598   16791   16984   17177   17370   17563   17756   17949
           18142   18335   18528   18721   18914   19107
$LOADS
LOAD          10      1.   1600.       3
FORCE          2       1        1.2337-4      0.      0.      1.
FORCE          2     194        1.2337-4      0.      0.      1.
FORCE          2     387        1.2337-4      0.      0.      1.
FORCE          2     580        1.2337-4      0.      0.      1.
FORCE          2     773        1.2337-4      0.      0.      1.
FORCE          2     966        1.2337-4      0.      0.      1.
FORCE          2    1159        1.2337-4      0.      0.      1.
FORCE          2    1352        1.2337-4      0.      0.      1.
FORCE          2    1545        1.2337-4      0.      0.      1.
FORCE          2    1738        1.2337-4      0.      0.      1.
FORCE          2    1931        1.2337-4      0.      0.      1.
FORCE          2    2124        1.2337-4      0.      0.      1.
FORCE          2    2317        1.2337-4      0.      0.      1.
FORCE          2    2510        1.2337-4      0.      0.      1.
FORCE          2    2703        1.2337-4      0.      0.      1.
FORCE          2    2896        1.2337-4      0.      0.      1.
FORCE          2    3089        1.2337-4      0.      0.      1.
FORCE          2    3282        1.2337-4      0.      0.      1.
FORCE          2    3475        1.2337-4      0.      0.      1.
FORCE          2    3668        1.2337-4      0.      0.      1.
$ ... 8280 like lines cut
$DYNAMIC
EIGRL         11      0.               1
NLPARM         1     100            ITER       1              PV     YES
                    .001
              10
NLPCI          1    CRIS     .01     1.1      0.               5    2000
$SPCs
SPC1           1  123456       1     194     387     580     773     966
            1159    1352    1545    1738    1931    2124    2317    2510
            2703    2896    3089    3282    3475    3668    3861    4054
            4247    4440    4633    4826    5019    5212    5405    5598
            5791    5984    6177    6370    6563    6756    6949    7142
            7335    7528    7721    7914    8107    8300    8493    8686
            8879    9072    9265    9458    9651    9844   10037   10230
           10423   10616   10809   11002   11195   11388   11581   11774
           11967   12160   12353   12546   12739   12932   13125   13318
           13511   13704   13897   14090   14283   14476   14669   14862
           15055   15248   15441   15634   15827   16020   16213   16406
           16599   16792   16985   17178   17371   17564   17757   17950
           18143   18336   18529   18722   18915
