$pyNastran: version=msc
$pyNastran: punch=False
$pyNastran: encoding=utf-8
$pyNastran: nnodes=7225
$pyNastran: nelements=7056
$EXECUTIVE CONTROL DECK
SOL 105
CEND
$CASE CONTROL DECK
DISPLACEMENT(PLOT) = ALL
ECHO = NONE
OLOAD(PLOT) = ALL
SPC = 4
SPCFORCES(PLOT) = ALL
SUBCASE 1
    LOAD = 5
SUBCASE 2
    METHOD = 7
BEGIN BULK
$PARAMS
PARAM       POST       1
$NODES
GRID           1              0.      0.      0.
GRID           2              0. 2.97619      0.
GRID           3              0.5.952381      0.
GRID           4              0.8.928571      0.
GRID           5              0.11.90476      0.
GRID           6              0.14.88095      0.
GRID           7              0.17.85714      0.
GRID           8              0.20.83333      0.
GRID           9              0.23.80952      0.
GRID          10              0.26.78571      0.
GRID          11              0. 29.7619      0.
GRID          12              0. 32.7381      0.
GRID          13              0.35.71429      0.
GRID          14              0.38.69048      0.
GRID          15              0.41.66667      0.
GRID          16              0.44.64286      0.
GRID          17              0.47.61905      0.
GRID          18              0.50.59524      0.
GRID          19              0.53.57143      0.
GRID          20              0.56.54762      0.
$ ... 7205 like lines cut
$ELEMENTS
CQUAD4         1       1       1      86      87       2
CQUAD4         2       1       2      87      88       3
CQUAD4         3       1       3      88      89       4
CQUAD4         4       1       4      89      90       5
CQUAD4         5       1       5      90      91       6
CQUAD4         6       1       6      91      92       7
CQUAD4         7       1       7      92      93       8
CQUAD4         8       1       8      93      94       9
CQUAD4         9       1       9      94      95      10
CQUAD4        10       1      10      95      96      11
CQUAD4        11       1      11      96      97      12
CQUAD4        12       1      12      97      98      13
CQUAD4        13       1      13      98      99      14
CQUAD4        14       1      14      99     100      15
CQUAD4        15       1      15     100     101      16
CQUAD4        16       1      16     101     102      17
CQUAD4        17       1      17     102     103      18
CQUAD4        18       1      18     103     104      19
CQUAD4        19       1      19     104     105      20
CQUAD4        20       1      20     105     106      21
$ ... 7036 like lines cut
$PROPERTIES
PSHELL         1       1      6.       1               1
$MATERIALS
MAT1           1   3105.              .3
$LOADS
FORCE          5    7142        .0119048     -1.      0.      0.
FORCE          5    7143        .0119048     -1.      0.      0.
FORCE          5    7144        .0119048     -1.      0.      0.
FORCE          5    7145        .0119048     -1.      0.      0.
FORCE          5    7146        .0119048     -1.      0.      0.
FORCE          5    7147        .0119048     -1.      0.      0.
FORCE          5    7148        .0119048     -1.      0.      0.
FORCE          5    7149        .0119048     -1.      0.      0.
FORCE          5    7150        .0119048     -1.      0.      0.
FORCE          5    7151        .0119048     -1.      0.      0.
FORCE          5    7152        .0119048     -1.      0.      0.
FORCE          5    7153        .0119048     -1.      0.      0.
FORCE          5    7154        .0119048     -1.      0.      0.
FORCE          5    7155        .0119048     -1.      0.      0.
FORCE          5    7156        .0119048     -1.      0.      0.
FORCE          5    7157        .0119048     -1.      0.      0.
FORCE          5    7158        .0119048     -1.      0.      0.
FORCE          5    7159        .0119048     -1.      0.      0.
FORCE          5    7160        .0119048     -1.      0.      0.
FORCE          5    7161        .0119048     -1.      0.      0.
$ ... 66 like lines cut
$DYNAMIC
EIGRL          7      0.               1
$SPCs
SPCADD         4       1       2       3
SPC1           1     123       1       2       3       4       5       6
               7       8       9      10      11      12      13      14
              15      16      17      18      19      20      21      22
              23      24      25      26      27      28      29      30
              31      32      33      34      35      36      37      38
              39      40      41      42      43      44      45      46
              47      48      49      50      51      52      53      54
              55      56      57      58      59      60      61      62
              63      64      65      66      67      68      69      70
              71      72      73      74      75      76      77      78
              79      80      81      82      83      84      85
SPC1           2      23    7141    7142    7143    7144    7145    7146
            7147    7148    7149    7150    7151    7152    7153    7154
            7155    7156    7157    7158    7159    7160    7161    7162
            7163    7164    7165    7166    7167    7168    7169    7170
            7171    7172    7173    7174    7175    7176    7177    7178
            7179    7180    7181    7182    7183    7184    7185    7186
            7187    7188    7189    7190    7191    7192    7193    7194
            7195    7196    7197    7198    7199    7200    7201    7202
            7203    7204    7205    7206    7207    7208    7209    7210
            7211    7212    7213    7214    7215    7216    7217    7218
            7219    7220    7221    7222    7223    7224    7225
SPC1           3       3      86     170     171     255     256     340
             341     425     426     510     511     595     596     680
             681     765     766     850     851     935     936    1020
            1021    1105    1106    1190    1191    1275    1276    1360
            1361    1445    1446    1530    1531    1615    1616    1700
            1701    1785    1786    1870    1871    1955    1956    2040
            2041    2125    2126    2210    2211    2295    2296    2380
            2381    2465    2466    2550    2551    2635    2636    2720
            2721    2805    2806    2890    2891    2975    2976    3060
            3061    3145    3146    3230    3231    3315    3316    3400
            3401    3485    3486    3570    3571    3655    3656    3740
            3741    3825    3826    3910    3911    3995    3996    4080
            4081    4165    4166    4250    4251    4335    4336    4420
            4421    4505    4506    4590    4591    4675    4676    4760
            4761    4845    4846    4930    4931    5015    5016    5100
            5101    5185    5186    5270    5271    5355    5356    5440
            5441    5525    5526    5610    5611    5695    5696    5780
            5781    5865    5866    5950    5951    6035    6036    6120
            6121    6205    6206    6290    6291    6375    6376    6460
            6461    6545    6546    6630    6631    6715    6716    6800
            6801    6885    6886    6970    6971    7055    7056    7140
