$pyNastran: version=msc
$pyNastran: punch=False
$pyNastran: encoding=utf-8
$pyNastran: nnodes=4134
$pyNastran: nelements=4344
$EXECUTIVE CONTROL DECK
SOL 105
CEND
$CASE CONTROL DECK
DISPLACEMENT(PLOT) = ALL
ECHO = NONE
OLOAD(PLOT) = ALL
SPC = 1
SUBCASE 1
    LOAD = 11
SUBCASE 2
    METHOD = 12
BEGIN BULK
$PARAMS
PARAM*              POST               1
*
$NODES
GRID*                  1                3.4100000000e+031.6322222900e+03
*       3.8500000000e+02                                                
GRID*                  2                3.4100000000e+031.6322222900e+03
*       0.0000000000e+00                                                
GRID*                  3                3.4100000000e+031.9042592773e+03
*       0.0000000000e+00                                                
GRID*                  4                3.4100000000e+031.9042592773e+03
*       3.8500000000e+02                                                
GRID*                  5                3.4100000000e+031.6322222900e+03
*       -3.850000000e+02                                                
GRID*                  6                3.4100000000e+031.9042592773e+03
*       -3.850000000e+02                                                
GRID*                  7                3.4100000000e+032.1762963867e+03
*       0.0000000000e+00                                                
GRID*                  8                3.4100000000e+032.1762963867e+03
*       3.8500000000e+02                                                
GRID*                  9                3.4100000000e+032.1762963867e+03
*       -3.850000000e+02                                                
GRID*                 10                3.4100000000e+032.4483332520e+03
*       0.0000000000e+00                                                
GRID*                 11                3.4100000000e+032.4483332520e+03
*       3.8500000000e+02                                                
GRID*                 12                3.4100000000e+032.4483332520e+03
*       -3.850000000e+02                                                
GRID*                 13                3.4100000000e+032.7203703613e+03
*       0.0000000000e+00                                                
GRID*                 14                3.4100000000e+032.7203703613e+03
*       3.8500000000e+02                                                
GRID*                 15                3.4100000000e+032.7203703613e+03
*       -3.850000000e+02                                                
GRID*                 16                3.4100000000e+032.9924074707e+03
*       0.0000000000e+00                                                
GRID*                 17                3.4100000000e+032.9924074707e+03
*       3.8500000000e+02                                                
GRID*                 18                3.4100000000e+032.9924074707e+03
*       -3.850000000e+02                                                
GRID*                 19                3.4100000000e+033.2644443359e+03
*       0.0000000000e+00                                                
GRID*                 20                3.4100000000e+033.2644443359e+03
*       3.8500000000e+02                                                
$ ... 8228 like lines cut
$ELEMENTS
CQUAD4*                1               1               1               2
*                      3               4                                
CQUAD4*                2               1               2               5
*                      6               3                                
CQUAD4*                3               1               4               3
*                      7               8                                
CQUAD4*                4               1               3               6
*                      9               7                                
CQUAD4*                5               1               8               7
*                     10              11                                
CQUAD4*                6               1               7               9
*                     12              10                                
CQUAD4*                7               1              11              10
*                     13              14                                
CQUAD4*                8               1              10              12
*                     15              13                                
CQUAD4*                9               1              14              13
*                     16              17                                
CQUAD4*               10               1              13              15
*                     18              16                                
CQUAD4*               11               1              17              16
*                     19              20                                
CQUAD4*               12               1              16              18
*                     21              19                                
CQUAD4*               13               1              22              23
*                     24              25                                
CQUAD4*               14               1              23              26
*                     27              24                                
CQUAD4*               15               1              26              28
*                     29              27                                
CQUAD4*               16               1              28              30
*                     31              29                                
CQUAD4*               17               1              25              24
*                     32              33                                
CQUAD4*               18               1              24              27
*                     34              32                                
CQUAD4*               19               1              27              29
*                     35              34                                
CQUAD4*               20               1              29              31
*                     36              35                                
$ ... 8648 like lines cut
$PROPERTIES
PSHELL*                1               1             7.7               1
*                                      1
$MATERIALS
MAT1*                  1          73100.                              .3
*           .00000000278
$RIGID ELEMENTS
RBE3*               4345                            4134          123456
*                     1.          123456            3508            3509
*                   3510            3536            3537            3538
*                   3539            3540            3561            3562
*                   3563            3564            3580            3581
*                   3582            3632            3633            3634
*                   3635            3636            3657            3658
*                   3659            3660            3676            3677
*                   3678            3708
*
$LOADS
FORCE*                11            4134                1.0000000000e+00
*       0.0000000000e+000.0000000000e+001.0000000000e+00
$DYNAMIC
EIGRL*                12              0.                               1
*
$SPCs
SPC1           1  123456    3709    3710    3711    3712    3713    3714
            3715    3716    3717    3718    3719    3720    3721    3722
            3723    3724    3725    3726    3727    3728    3729    3730
            3731    3732    3733    3734    3735    3736    3737    3738
            3739    3740    3741    3742    3743    3744    3745    3746
            3747    4021    4023    4033    4035    4105    4106    4117
            4118
