$pyNastran: version=msc
$pyNastran: punch=False
$pyNastran: encoding=utf-8
$pyNastran: nnodes=4134
$pyNastran: nelements=4344
$EXECUTIVE CONTROL DECK
SOL 105
CEND
$CASE CONTROL DECK
DISPLACEMENT(PLOT) = ALL
ECHO = NONE
OLOAD(PLOT) = ALL
SPC = 1
SUBCASE 1
    LOAD = 11
SUBCASE 2
    METHOD = 12
BEGIN BULK
$PARAMS
PARAM*              POST               1
*
$NODES
GRID*                  1                3.4100000000e+031.6322222222e+03
*       -3.850000000e+02                                                
GRID*                  2                3.4100000000e+031.6322222222e+03
*       0.0000000000e+00                                                
GRID*                  3                3.4100000000e+031.3601851852e+03
*       0.0000000000e+00                                                
GRID*                  4                3.4100000000e+031.3601851852e+03
*       -3.850000000e+02                                                
GRID*                  5                3.4100000000e+031.0881481481e+03
*       0.0000000000e+00                                                
GRID*                  6                3.4100000000e+031.0881481481e+03
*       -3.850000000e+02                                                
GRID*                  7                3.4100000000e+038.1611111111e+02
*       0.0000000000e+00                                                
GRID*                  8                3.4100000000e+038.1611111111e+02
*       -3.850000000e+02                                                
GRID*                  9                3.4100000000e+035.4407407407e+02
*       0.0000000000e+00                                                
GRID*                 10                3.4100000000e+035.4407407407e+02
*       -3.850000000e+02                                                
GRID*                 11                3.4100000000e+032.7203703704e+02
*       0.0000000000e+00                                                
GRID*                 12                3.4100000000e+032.7203703704e+02
*       -3.850000000e+02                                                
GRID*                 13                3.4100000000e+030.0000000000e+00
*       0.0000000000e+00                                                
GRID*                 14                3.4100000000e+030.0000000000e+00
*       -3.850000000e+02                                                
GRID*                 15                3.4100000000e+031.6322222222e+03
*       3.8500000000e+02                                                
GRID*                 16                3.4100000000e+031.3601851852e+03
*       3.8500000000e+02                                                
GRID*                 17                3.4100000000e+031.0881481481e+03
*       3.8500000000e+02                                                
GRID*                 18                3.4100000000e+038.1611111111e+02
*       3.8500000000e+02                                                
GRID*                 19                3.4100000000e+035.4407407407e+02
*       3.8500000000e+02                                                
GRID*                 20                3.4100000000e+032.7203703704e+02
*       3.8500000000e+02                                                
$ ... 8228 like lines cut
$ELEMENTS
CQUAD4*                1               1               1               2
*                      3               4                                
CQUAD4*                2               1               4               3
*                      5               6                                
CQUAD4*                3               1               6               5
*                      7               8                                
CQUAD4*                4               1               8               7
*                      9              10                                
CQUAD4*                5               1              10               9
*                     11              12                                
CQUAD4*                6               1              12              11
*                     13              14                                
CQUAD4*                7               1               2              15
*                     16               3                                
CQUAD4*                8               1               3              16
*                     17               5                                
CQUAD4*                9               1               5              17
*                     18               7                                
CQUAD4*               10               1               7              18
*                     19               9                                
CQUAD4*               11               1               9              19
*                     20              11                                
CQUAD4*               12               1              11              20
*                     21              13                                
CQUAD4*               13               1              22              23
*                     24              25                                
CQUAD4*               14               1              25              24
*                     26              27                                
CQUAD4*               15               1              23              28
*                     29              24                                
CQUAD4*               16               1              24              29
*                     30              26                                
CQUAD4*               17               1              28              31
*                     32              29                                
CQUAD4*               18               1              29              32
*                     33              30                                
CQUAD4*               19               1              31              34
*                     35              32                                
CQUAD4*               20               1              32              35
*                     36              33                                
$ ... 8648 like lines cut
$PROPERTIES
PSHELL*                1               1             7.7               1
*                                      1
$MATERIALS
MAT1*                  1          73100.                              .3
*           .00000000278
$RIGID ELEMENTS
RBE3*               4345                            4134          123456
*                     1.          123456            3901            3902
*                   3908            3909            3910            3921
*                   3936            3942            3948            3954
*                   3955            3961            3967            3973
*                   4012            4018            4024            4030
*                   4031            4037            4043            4049
*                   4087            4093            4099            4100
*                   4106            4112
*
$LOADS
FORCE*                11            4134                1.0000000000e+00
*       0.0000000000e+000.0000000000e+001.0000000000e+00
$DYNAMIC
EIGRL*                12              0.                               1
*
$SPCs
SPC1           1  123456      13      14      21      22      23      24
              25      26      27      28      29      30      31      32
              33      34      35      36      97      98     111     112
             125     126     127     128     129     130     131     132
             133     134     135     136     185     186     199     200
             213     214     215     216     217     218     219     220
             221
