$pyNastran: version=msc
$pyNastran: punch=False
$pyNastran: encoding=utf-8
$pyNastran: nnodes=8510
$pyNastran: nelements=8856
$EXECUTIVE CONTROL DECK
SOL 105
CEND
$CASE CONTROL DECK
DISPLACEMENT(PLOT) = ALL
ECHO = NONE
OLOAD(PLOT) = ALL
SPC = 1
SUBCASE 1
    LOAD = 11
SUBCASE 2
    METHOD = 12
BEGIN BULK
$PARAMS
PARAM*              POST               1
*
$NODES
GRID*                  1                3.4100000000e+031.6322222900e+03
*       3.8500000000e+02                                                
GRID*                  2                3.4100000000e+031.6322222900e+03
*       1.9250000000e+02                                                
GRID*                  3                3.4100000000e+031.8362500000e+03
*       1.9250000000e+02                                                
GRID*                  4                3.4100000000e+031.8362500000e+03
*       3.8500000000e+02                                                
GRID*                  5                3.4100000000e+031.6322222900e+03
*       0.0000000000e+00                                                
GRID*                  6                3.4100000000e+031.8362500000e+03
*       0.0000000000e+00                                                
GRID*                  7                3.4100000000e+031.6322222900e+03
*       -1.925000000e+02                                                
GRID*                  8                3.4100000000e+031.8362500000e+03
*       -1.925000000e+02                                                
GRID*                  9                3.4100000000e+031.6322222900e+03
*       -3.850000000e+02                                                
GRID*                 10                3.4100000000e+031.8362500000e+03
*       -3.850000000e+02                                                
GRID*                 11                3.4100000000e+032.0402778320e+03
*       1.9250000000e+02                                                
GRID*                 12                3.4100000000e+032.0402778320e+03
*       3.8500000000e+02                                                
GRID*                 13                3.4100000000e+032.0402778320e+03
*       0.0000000000e+00                                                
GRID*                 14                3.4100000000e+032.0402778320e+03
*       -1.925000000e+02                                                
GRID*                 15                3.4100000000e+032.0402778320e+03
*       -3.850000000e+02                                                
GRID*                 16                3.4100000000e+032.2443056641e+03
*       1.9250000000e+02                                                
GRID*                 17                3.4100000000e+032.2443056641e+03
*       3.8500000000e+02                                                
GRID*                 18                3.4100000000e+032.2443056641e+03
*       0.0000000000e+00                                                
GRID*                 19                3.4100000000e+032.2443056641e+03
*       -1.925000000e+02                                                
GRID*                 20                3.4100000000e+032.2443056641e+03
*       -3.850000000e+02                                                
$ ... 16980 like lines cut
$ELEMENTS
CQUAD4*                1               1               1               2
*                      3               4                                
CQUAD4*                2               1               2               5
*                      6               3                                
CQUAD4*                3               1               5               7
*                      8               6                                
CQUAD4*                4               1               7               9
*                     10               8                                
CQUAD4*                5               1               4               3
*                     11              12                                
CQUAD4*                6               1               3               6
*                     13              11                                
CQUAD4*                7               1               6               8
*                     14              13                                
CQUAD4*                8               1               8              10
*                     15              14                                
CQUAD4*                9               1              12              11
*                     16              17                                
CQUAD4*               10               1              11              13
*                     18              16                                
CQUAD4*               11               1              13              14
*                     19              18                                
CQUAD4*               12               1              14              15
*                     20              19                                
CQUAD4*               13               1              17              16
*                     21              22                                
CQUAD4*               14               1              16              18
*                     23              21                                
CQUAD4*               15               1              18              19
*                     24              23                                
CQUAD4*               16               1              19              20
*                     25              24                                
CQUAD4*               17               1              22              21
*                     26              27                                
CQUAD4*               18               1              21              23
*                     28              26                                
CQUAD4*               19               1              23              24
*                     29              28                                
CQUAD4*               20               1              24              25
*                     30              29                                
$ ... 17672 like lines cut
$PROPERTIES
PSHELL*                1               1             7.7               1
*                                      1
$MATERIALS
MAT1*                  1          73100.                              .3
*           .00000000278
$RIGID ELEMENTS
RBE3*               8857                            8510          123456
*                     1.          123456            6744            6745
*                   6746            6747            6748            6798
*                   6799            6800            6801            6802
*                   6803            6804            6847            6848
*                   6849            6850            6851            6852
*                   6888            6889            6890            6891
*                   6892            6974            6975            6976
*                   6977            6978            6979            6980
*                   7023            7024            7025            7026
*                   7027            7028            7064            7065
*                   7066            7067            7068            7122
*                   7123            7124
*
$LOADS
FORCE*                11            8510                1.0000000000e+00
*       0.0000000000e+000.0000000000e+001.0000000000e+00
$DYNAMIC
EIGRL*                12              0.                               1
*
$SPCs
SPC1           1  123456    7125    7126    7127    7128    7129    7130
            7131    7132    7133    7134    7135    7136    7137    7138
            7139    7140    7141    7142    7143    7144    7145    7146
            7147    7148    7149    7150    7151    7152    7153    7154
            7155    7156    7157    7158    7159    7160    7161    7162
            7163    7164    7165    7166    7167    7168    7169    7170
            7171    7172    7173    7174    7175    7176    7177    7178
            7179    7180    7181    7182    7183    7184    7185    7186
            7187    7188    7189    7190    7191    7192    7193    7194
            7195    7196    7197    7198    7199    7200    7201    7202
            7203    7204    7205    7206    7207    7208    7209    7210
            7211    7212    7213    7214    7215    7216    7217    7218
            7219    8299    8301    8315    8317    8457    8458    8473
            8474
