$pyNastran: version=msc
$pyNastran: punch=False
$pyNastran: encoding=utf-8
$pyNastran: nnodes=421
$pyNastran: nelements=420
$EXECUTIVE CONTROL DECK
SOL 106
CEND
$CASE CONTROL DECK
DISPLACEMENT(PLOT) = ALL
ECHO = NONE
NLPARM = 1
OLOAD(PLOT) = ALL
SPC = 3
SUBCASE 1
    LOAD = 4
SUBCASE 2
    LOAD = 6
SUBCASE 3
    LOAD = 4
SUBCASE 4
    LOAD = 7
SUBCASE 5
    LOAD = 6
BEGIN BULK
$PARAMS
PARAM     LGDISP       1
PARAM*              POST               1
*
$NODES
GRDSET                                                       345
GRID*                  1                0.0000000000e+000.0000000000e+00
*       0.0000000000e+00                                                
GRID*                  2                1.0000000000e+000.0000000000e+00
*       0.0000000000e+00                                                
GRID*                  3                2.0000000000e+000.0000000000e+00
*       0.0000000000e+00                                                
GRID*                  4                3.0000000000e+000.0000000000e+00
*       0.0000000000e+00                                                
GRID*                  5                4.0000000000e+000.0000000000e+00
*       0.0000000000e+00                                                
GRID*                  6                5.0000000000e+000.0000000000e+00
*       0.0000000000e+00                                                
GRID*                  7                6.0000000000e+000.0000000000e+00
*       0.0000000000e+00                                                
GRID*                  8                7.0000000000e+000.0000000000e+00
*       0.0000000000e+00                                                
GRID*                  9                8.0000000000e+000.0000000000e+00
*       0.0000000000e+00                                                
GRID*                 10                9.0000000000e+000.0000000000e+00
*       0.0000000000e+00                                                
GRID*                 11                1.0000000000e+010.0000000000e+00
*       0.0000000000e+00                                                
GRID*                 12                1.1000000000e+010.0000000000e+00
*       0.0000000000e+00                                                
GRID*                 13                1.2000000000e+010.0000000000e+00
*       0.0000000000e+00                                                
GRID*                 14                1.3000000000e+010.0000000000e+00
*       0.0000000000e+00                                                
GRID*                 15                1.4000000000e+010.0000000000e+00
*       0.0000000000e+00                                                
GRID*                 16                1.5000000000e+010.0000000000e+00
*       0.0000000000e+00                                                
GRID*                 17                1.6000000000e+010.0000000000e+00
*       0.0000000000e+00                                                
GRID*                 18                1.7000000000e+010.0000000000e+00
*       0.0000000000e+00                                                
GRID*                 19                1.8000000000e+010.0000000000e+00
*       0.0000000000e+00                                                
GRID*                 20                1.9000000000e+010.0000000000e+00
*       0.0000000000e+00                                                
$ ... 802 like lines cut
$ELEMENTS
CBEAM*                 1               1               1               2
*                     0.              0.              1.
CBEAM*                 2               1               2               3
*                     0.              0.              1.
CBEAM*                 3               1               3               4
*                     0.              0.              1.
CBEAM*                 4               1               4               5
*                     0.              0.              1.
CBEAM*                 5               1               5               6
*                     0.              0.              1.
CBEAM*                 6               1               6               7
*                     0.              0.              1.
CBEAM*                 7               1               7               8
*                     0.              0.              1.
CBEAM*                 8               1               8               9
*                     0.              0.              1.
CBEAM*                 9               1               9              10
*                     0.              0.              1.
CBEAM*                10               1              10              11
*                     0.              0.              1.
CBEAM*                11               1              11              12
*                     0.              0.              1.
CBEAM*                12               1              12              13
*                     0.              0.              1.
CBEAM*                13               1              13              14
*                     0.              0.              1.
CBEAM*                14               1              14              15
*                     0.              0.              1.
CBEAM*                15               1              15              16
*                     0.              0.              1.
CBEAM*                16               1              16              17
*                     0.              0.              1.
CBEAM*                17               1              17              18
*                     0.              0.              1.
CBEAM*                18               1              18              19
*                     0.              0.              1.
CBEAM*                19               1              19              20
*                     0.              0.              1.
CBEAM*                20               1              20              21
*                     0.              0.              1.
$ ... 800 like lines cut
$PROPERTIES
PBEAML*                1               1                             ROD
*
*                    10.              0.
*
$MATERIALS
MAT1*                  1         207000.                              .3
*                 .00078
$LOADS
LOAD*                  6              1.              1.               4
*                     1.               5
LOAD*                  7              1.              0.               4
*
FORCE*                 4             421                1.8115600000e+05
*       -1.000000000e+000.0000000000e+000.0000000000e+00
FORCE*                 5             211                9.0578000000e+02
*       0.0000000000e+001.0000000000e+000.0000000000e+00
$DYNAMIC
NLPARM*                1             100                            ITER
*                     -1                             PUV             YES
*                   .001            .001
*
*                     10
*
$SPCs
SPCADD         3       1       2
SPC1           1      12       1
SPC1           2       2     421
