$pyNastran: version=msc
$pyNastran: punch=False
$pyNastran: encoding=utf-8
$pyNastran: nnodes=5544
$pyNastran: nelements=5488
$EXECUTIVE CONTROL DECK
SOL 105
CEND
$CASE CONTROL DECK
DISPLACEMENT(PLOT) = ALL
ECHO = NONE
OLOAD(PLOT) = ALL
SPC = 1
SUBCASE 1
    LOAD = 11
SUBCASE 2
    METHOD = 12
BEGIN BULK
$PARAMS
PARAM*              POST               1
*
$NODES
GRID*                  1                1.0000000000e+034.5000000000e+03
*       -1.000000000e+02                                                
GRID*                  2                1.0000000000e+034.5000000000e+03
*       -6.666666667e+01                                                
GRID*                  3                1.0000000000e+034.4540816327e+03
*       -6.666666667e+01                                                
GRID*                  4                1.0000000000e+034.4540816327e+03
*       -1.000000000e+02                                                
GRID*                  5                1.0000000000e+034.4081632653e+03
*       -6.666666667e+01                                                
GRID*                  6                1.0000000000e+034.4081632653e+03
*       -1.000000000e+02                                                
GRID*                  7                1.0000000000e+034.3622448980e+03
*       -6.666666667e+01                                                
GRID*                  8                1.0000000000e+034.3622448980e+03
*       -1.000000000e+02                                                
GRID*                  9                1.0000000000e+034.3163265306e+03
*       -6.666666667e+01                                                
GRID*                 10                1.0000000000e+034.3163265306e+03
*       -1.000000000e+02                                                
GRID*                 11                1.0000000000e+034.2704081633e+03
*       -6.666666667e+01                                                
GRID*                 12                1.0000000000e+034.2704081633e+03
*       -1.000000000e+02                                                
GRID*                 13                1.0000000000e+034.2244897959e+03
*       -6.666666667e+01                                                
GRID*                 14                1.0000000000e+034.2244897959e+03
*       -1.000000000e+02                                                
GRID*                 15                1.0000000000e+034.1785714286e+03
*       -6.666666667e+01                                                
GRID*                 16                1.0000000000e+034.1785714286e+03
*       -1.000000000e+02                                                
GRID*                 17                1.0000000000e+034.1326530612e+03
*       -6.666666667e+01                                                
GRID*                 18                1.0000000000e+034.1326530612e+03
*       -1.000000000e+02                                                
GRID*                 19                1.0000000000e+034.0867346939e+03
*       -6.666666667e+01                                                
GRID*                 20                1.0000000000e+034.0867346939e+03
*       -1.000000000e+02                                                
$ ... 11048 like lines cut
$ELEMENTS
CQUAD4*                1               1               1               2
*                      3               4                                
CQUAD4*                2               1               4               3
*                      5               6                                
CQUAD4*                3               1               6               5
*                      7               8                                
CQUAD4*                4               1               8               7
*                      9              10                                
CQUAD4*                5               1              10               9
*                     11              12                                
CQUAD4*                6               1              12              11
*                     13              14                                
CQUAD4*                7               1              14              13
*                     15              16                                
CQUAD4*                8               1              16              15
*                     17              18                                
CQUAD4*                9               1              18              17
*                     19              20                                
CQUAD4*               10               1              20              19
*                     21              22                                
CQUAD4*               11               1              22              21
*                     23              24                                
CQUAD4*               12               1              24              23
*                     25              26                                
CQUAD4*               13               1              26              25
*                     27              28                                
CQUAD4*               14               1              28              27
*                     29              30                                
CQUAD4*               15               1              30              29
*                     31              32                                
CQUAD4*               16               1              32              31
*                     33              34                                
CQUAD4*               17               1              34              33
*                     35              36                                
CQUAD4*               18               1              36              35
*                     37              38                                
CQUAD4*               19               1              38              37
*                     39              40                                
CQUAD4*               20               1              40              39
*                     41              42                                
$ ... 10936 like lines cut
$PROPERTIES
PSHELL*                1               1              4.               1
*                                      1
$MATERIALS
MAT1*                  1          73100.                              .3
*           .00000000278
$LOADS
FORCE*                11             595                4.5766590389e-04
*       0.0000000000e+000.0000000000e+001.0000000000e+00
FORCE*                11             596                4.5766590389e-04
*       0.0000000000e+000.0000000000e+001.0000000000e+00
FORCE*                11             597                4.5766590389e-04
*       0.0000000000e+000.0000000000e+001.0000000000e+00
FORCE*                11             598                4.5766590389e-04
*       0.0000000000e+000.0000000000e+001.0000000000e+00
FORCE*                11             601                4.5766590389e-04
*       0.0000000000e+000.0000000000e+001.0000000000e+00
FORCE*                11             602                4.5766590389e-04
*       0.0000000000e+000.0000000000e+001.0000000000e+00
FORCE*                11             604                4.5766590389e-04
*       0.0000000000e+000.0000000000e+001.0000000000e+00
FORCE*                11             605                4.5766590389e-04
*       0.0000000000e+000.0000000000e+001.0000000000e+00
FORCE*                11             606                4.5766590389e-04
*       0.0000000000e+000.0000000000e+001.0000000000e+00
FORCE*                11             607                4.5766590389e-04
*       0.0000000000e+000.0000000000e+001.0000000000e+00
FORCE*                11             608                4.5766590389e-04
*       0.0000000000e+000.0000000000e+001.0000000000e+00
FORCE*                11             609                4.5766590389e-04
*       0.0000000000e+000.0000000000e+001.0000000000e+00
FORCE*                11             610                4.5766590389e-04
*       0.0000000000e+000.0000000000e+001.0000000000e+00
FORCE*                11             611                4.5766590389e-04
*       0.0000000000e+000.0000000000e+001.0000000000e+00
FORCE*                11             612                4.5766590389e-04
*       0.0000000000e+000.0000000000e+001.0000000000e+00
FORCE*                11             613                4.5766590389e-04
*       0.0000000000e+000.0000000000e+001.0000000000e+00
FORCE*                11             614                4.5766590389e-04
*       0.0000000000e+000.0000000000e+001.0000000000e+00
FORCE*                11             616                4.5766590389e-04
*       0.0000000000e+000.0000000000e+001.0000000000e+00
FORCE*                11             617                4.5766590389e-04
*       0.0000000000e+000.0000000000e+001.0000000000e+00
FORCE*                11             618                4.5766590389e-04
*       0.0000000000e+000.0000000000e+001.0000000000e+00
$ ... 4330 like lines cut
$DYNAMIC
EIGRL*                12              0.                               1
*
$SPCs
SPC1           1  123456     197     198     297     396     495     594
             693     694     695     892     991    1090    1189    1288
            1387    1486    1585    1684    1783    1882    1981    2080
            2179    2278    2377    2476    2575    2674    2773    3068
            3069    3168    3267    3366    3465    3564    3663    3762
            3861    3960    4059    4158    4257    4356    4455    4554
            4653    4752    4851    4950    5049    5050    5149    5248
            5347    5446
