$pyNastran: version=msc
$pyNastran: punch=False
$pyNastran: encoding=utf-8
$pyNastran: nnodes=2196
$pyNastran: nelements=2160
$EXECUTIVE CONTROL DECK
SOL 105
CEND
$CASE CONTROL DECK
DISPLACEMENT(PLOT) = ALL
ECHO = NONE
OLOAD(PLOT) = ALL
SPC = 1
SUBCASE 1
    LOAD = 11
BEGIN BULK
$PARAMS
PARAM*              POST               1
*
$NODES
GRID*                  1                1.0000000000e+034.5000000000e+03
*       -1.000000000e+02                                                
GRID*                  2                1.0000000000e+034.5000000000e+03
*       -5.000000000e+01                                                
GRID*                  3                1.0000000000e+034.4250000000e+03
*       -5.000000000e+01                                                
GRID*                  4                1.0000000000e+034.4250000000e+03
*       -1.000000000e+02                                                
GRID*                  5                1.0000000000e+034.3500000000e+03
*       -5.000000000e+01                                                
GRID*                  6                1.0000000000e+034.3500000000e+03
*       -1.000000000e+02                                                
GRID*                  7                1.0000000000e+034.2750000000e+03
*       -5.000000000e+01                                                
GRID*                  8                1.0000000000e+034.2750000000e+03
*       -1.000000000e+02                                                
GRID*                  9                1.0000000000e+034.2000000000e+03
*       -5.000000000e+01                                                
GRID*                 10                1.0000000000e+034.2000000000e+03
*       -1.000000000e+02                                                
GRID*                 11                1.0000000000e+034.1250000000e+03
*       -5.000000000e+01                                                
GRID*                 12                1.0000000000e+034.1250000000e+03
*       -1.000000000e+02                                                
GRID*                 13                1.0000000000e+034.0500000000e+03
*       -5.000000000e+01                                                
GRID*                 14                1.0000000000e+034.0500000000e+03
*       -1.000000000e+02                                                
GRID*                 15                1.0000000000e+033.9750000000e+03
*       -5.000000000e+01                                                
GRID*                 16                1.0000000000e+033.9750000000e+03
*       -1.000000000e+02                                                
GRID*                 17                1.0000000000e+033.9000000000e+03
*       -5.000000000e+01                                                
GRID*                 18                1.0000000000e+033.9000000000e+03
*       -1.000000000e+02                                                
GRID*                 19                1.0000000000e+033.8250000000e+03
*       -5.000000000e+01                                                
GRID*                 20                1.0000000000e+033.8250000000e+03
*       -1.000000000e+02                                                
$ ... 4352 like lines cut
$ELEMENTS
CQUAD4*                1               1               1               2
*                      3               4                                
CQUAD4*                2               1               4               3
*                      5               6                                
CQUAD4*                3               1               6               5
*                      7               8                                
CQUAD4*                4               1               8               7
*                      9              10                                
CQUAD4*                5               1              10               9
*                     11              12                                
CQUAD4*                6               1              12              11
*                     13              14                                
CQUAD4*                7               1              14              13
*                     15              16                                
CQUAD4*                8               1              16              15
*                     17              18                                
CQUAD4*                9               1              18              17
*                     19              20                                
CQUAD4*               10               1              20              19
*                     21              22                                
CQUAD4*               11               1              22              21
*                     23              24                                
CQUAD4*               12               1              24              23
*                     25              26                                
CQUAD4*               13               1              26              25
*                     27              28                                
CQUAD4*               14               1              28              27
*                     29              30                                
CQUAD4*               15               1              30              29
*                     31              32                                
CQUAD4*               16               1              32              31
*                     33              34                                
CQUAD4*               17               1              34              33
*                     35              36                                
CQUAD4*               18               1              36              35
*                     37              38                                
CQUAD4*               19               1              38              37
*                     39              40                                
CQUAD4*               20               1              40              39
*                     41              42                                
$ ... 4280 like lines cut
$PROPERTIES
PSHELL*                1               1              4.               1
*                                      1
$MATERIALS
MAT1*                  1          73100.                              .3
*           .00000000278
$LOADS
FORCE*                11             245                1.1494252874e-03
*       0.0000000000e+000.0000000000e+001.0000000000e+00
FORCE*                11             246                1.1494252874e-03
*       0.0000000000e+000.0000000000e+001.0000000000e+00
FORCE*                11             247                1.1494252874e-03
*       0.0000000000e+000.0000000000e+001.0000000000e+00
FORCE*                11             248                1.1494252874e-03
*       0.0000000000e+000.0000000000e+001.0000000000e+00
FORCE*                11             249                1.1494252874e-03
*       0.0000000000e+000.0000000000e+001.0000000000e+00
FORCE*                11             251                1.1494252874e-03
*       0.0000000000e+000.0000000000e+001.0000000000e+00
FORCE*                11             252                1.1494252874e-03
*       0.0000000000e+000.0000000000e+001.0000000000e+00
FORCE*                11             253                1.1494252874e-03
*       0.0000000000e+000.0000000000e+001.0000000000e+00
FORCE*                11             254                1.1494252874e-03
*       0.0000000000e+000.0000000000e+001.0000000000e+00
FORCE*                11             255                1.1494252874e-03
*       0.0000000000e+000.0000000000e+001.0000000000e+00
FORCE*                11             256                1.1494252874e-03
*       0.0000000000e+000.0000000000e+001.0000000000e+00
FORCE*                11             257                1.1494252874e-03
*       0.0000000000e+000.0000000000e+001.0000000000e+00
FORCE*                11             258                1.1494252874e-03
*       0.0000000000e+000.0000000000e+001.0000000000e+00
FORCE*                11             260                1.1494252874e-03
*       0.0000000000e+000.0000000000e+001.0000000000e+00
FORCE*                11             262                1.1494252874e-03
*       0.0000000000e+000.0000000000e+001.0000000000e+00
FORCE*                11             263                1.1494252874e-03
*       0.0000000000e+000.0000000000e+001.0000000000e+00
FORCE*                11             264                1.1494252874e-03
*       0.0000000000e+000.0000000000e+001.0000000000e+00
FORCE*                11             265                1.1494252874e-03
*       0.0000000000e+000.0000000000e+001.0000000000e+00
FORCE*                11             266                1.1494252874e-03
*       0.0000000000e+000.0000000000e+001.0000000000e+00
FORCE*                11             267                1.1494252874e-03
*       0.0000000000e+000.0000000000e+001.0000000000e+00
$ ... 1700 like lines cut
$SPCs
SPC1           1  123456     121     122     183     244     305     306
             307     428     489     550     611     672     733     794
             855     916     977    1038    1099    1280    1281    1342
            1403    1464    1525    1586    1647    1708    1769    1830
            1891    1952    2013    2014    2075    2136
