$pyNastran: version=msc
$pyNastran: punch=False
$pyNastran: encoding=utf-8
$pyNastran: nnodes=984
$pyNastran: nelements=960
$EXECUTIVE CONTROL DECK
SOL 105
CEND
$CASE CONTROL DECK
DISPLACEMENT(PLOT) = ALL
ECHO = NONE
OLOAD(PLOT) = ALL
SPC = 1
SUBCASE 1
    LOAD = 11
SUBCASE 2
    METHOD = 12
BEGIN BULK
$PARAMS
PARAM       POST       1
$NODES
GRID           1              0.      0.    100.
GRID           2              0.   112.5    100.
GRID           3              0.    225.    100.
GRID           4              0.   337.5    100.
GRID           5              0.    450.    100.
GRID           6              0.   562.5    100.
GRID           7              0.    675.    100.
GRID           8              0.   787.5    100.
GRID           9              0.    900.    100.
GRID          10              0.  1012.5    100.
GRID          11              0.   1125.    100.
GRID          12              0.  1237.5    100.
GRID          13              0.   1350.    100.
GRID          14              0.  1462.5    100.
GRID          15              0.   1575.    100.
GRID          16              0.  1687.5    100.
GRID          17              0.   1800.    100.
GRID          18              0.  1912.5    100.
GRID          19              0.   2025.    100.
GRID          20              0.  2137.5    100.
$ ... 964 like lines cut
$ELEMENTS
CQUAD4         1       1       1       2      43      42
CQUAD4         2       1      42      43      84      83
CQUAD4         3       1      83      84     125     124
CQUAD4         4       1     124     125     166     165
CQUAD4         5       1     165     166     207     206
CQUAD4         6       1     206     207     248     247
CQUAD4         7       1     247     248     289     288
CQUAD4         8       1     288     289     330     329
CQUAD4         9       1     329     330     371     370
CQUAD4        10       1     370     371     412     411
CQUAD4        11       1     411     412     453     452
CQUAD4        12       1     452     453     494     493
CQUAD4        13       1     493     494     535     534
CQUAD4        14       1     534     535     576     575
CQUAD4        15       1     575     576     617     616
CQUAD4        16       1     616     617     658     657
CQUAD4        17       1     657     658     699     698
CQUAD4        18       1     698     699     740     739
CQUAD4        19       1     739     740     781     780
CQUAD4        20       1     780     781     822     821
$ ... 940 like lines cut
$PROPERTIES
PSHELL         1       1      4.       1               1
$MATERIALS
MAT1           1  73100.              .3  2.78-9
$LOADS
FORCE         11       1        .0022173      0.      0.      1.
FORCE         11       2        .0022173      0.      0.      1.
FORCE         11       3        .0022173      0.      0.      1.
FORCE         11       4        .0022173      0.      0.      1.
FORCE         11       5        .0022173      0.      0.      1.
FORCE         11       6        .0022173      0.      0.      1.
FORCE         11       7        .0022173      0.      0.      1.
FORCE         11       8        .0022173      0.      0.      1.
FORCE         11       9        .0022173      0.      0.      1.
FORCE         11      10        .0022173      0.      0.      1.
FORCE         11      11        .0022173      0.      0.      1.
FORCE         11      12        .0022173      0.      0.      1.
FORCE         11      13        .0022173      0.      0.      1.
FORCE         11      14        .0022173      0.      0.      1.
FORCE         11      15        .0022173      0.      0.      1.
FORCE         11      16        .0022173      0.      0.      1.
FORCE         11      17        .0022173      0.      0.      1.
FORCE         11      18        .0022173      0.      0.      1.
FORCE         11      19        .0022173      0.      0.      1.
FORCE         11      20        .0022173      0.      0.      1.
$ ... 431 like lines cut
$DYNAMIC
EIGRL         12      0.               1
$SPCs
SPC1           1  123456       1      42      83     124     165     206
             247     288     329     370     411     452     493     534
             575     616     657     698     739     780     821     862
             903     944
