$pyNastran: version=msc
$pyNastran: punch=False
$pyNastran: encoding=utf-8
$pyNastran: nnodes=8636
$pyNastran: nelements=8568
$EXECUTIVE CONTROL DECK
SOL 105
CEND
$CASE CONTROL DECK
DISPLACEMENT(PLOT) = ALL
ECHO = NONE
OLOAD(PLOT) = ALL
SPC = 1
SUBCASE 1
    LOAD = 11
SUBCASE 2
    METHOD = 12
BEGIN BULK
$PARAMS
PARAM       POST       1
$NODES
GRID           1              0.      0.    100.
GRID           2              0.35.71429    100.
GRID           3              0.71.42857    100.
GRID           4              0.107.1429    100.
GRID           5              0.142.8571    100.
GRID           6              0.178.5714    100.
GRID           7              0.214.2857    100.
GRID           8              0.    250.    100.
GRID           9              0.285.7143    100.
GRID          10              0.321.4286    100.
GRID          11              0.357.1429    100.
GRID          12              0.392.8571    100.
GRID          13              0.428.5714    100.
GRID          14              0.464.2857    100.
GRID          15              0.    500.    100.
GRID          16              0.535.7143    100.
GRID          17              0.571.4286    100.
GRID          18              0.607.1429    100.
GRID          19              0.642.8571    100.
GRID          20              0.678.5714    100.
$ ... 8616 like lines cut
$ELEMENTS
CQUAD4         1       1       1       2     129     128
CQUAD4         2       1     128     129     256     255
CQUAD4         3       1     255     256     383     382
CQUAD4         4       1     382     383     510     509
CQUAD4         5       1     509     510     637     636
CQUAD4         6       1     636     637     764     763
CQUAD4         7       1     763     764     891     890
CQUAD4         8       1     890     891    1018    1017
CQUAD4         9       1    1017    1018    1145    1144
CQUAD4        10       1    1144    1145    1272    1271
CQUAD4        11       1    1271    1272    1399    1398
CQUAD4        12       1    1398    1399    1526    1525
CQUAD4        13       1    1525    1526    1653    1652
CQUAD4        14       1    1652    1653    1780    1779
CQUAD4        15       1    1779    1780    1907    1906
CQUAD4        16       1    1906    1907    2034    2033
CQUAD4        17       1    2033    2034    2161    2160
CQUAD4        18       1    2160    2161    2288    2287
CQUAD4        19       1    2287    2288    2415    2414
CQUAD4        20       1    2414    2415    2542    2541
$ ... 8548 like lines cut
$PROPERTIES
PSHELL         1       1      4.       1               1
$MATERIALS
MAT1           1  73100.              .3  2.78-9
$LOADS
FORCE         11       1        2.7152-4      0.      0.      1.
FORCE         11       2        2.7152-4      0.      0.      1.
FORCE         11       3        2.7152-4      0.      0.      1.
FORCE         11       4        2.7152-4      0.      0.      1.
FORCE         11       5        2.7152-4      0.      0.      1.
FORCE         11       6        2.7152-4      0.      0.      1.
FORCE         11       7        2.7152-4      0.      0.      1.
FORCE         11       8        2.7152-4      0.      0.      1.
FORCE         11       9        2.7152-4      0.      0.      1.
FORCE         11      10        2.7152-4      0.      0.      1.
FORCE         11      11        2.7152-4      0.      0.      1.
FORCE         11      12        2.7152-4      0.      0.      1.
FORCE         11      13        2.7152-4      0.      0.      1.
FORCE         11      14        2.7152-4      0.      0.      1.
FORCE         11      15        2.7152-4      0.      0.      1.
FORCE         11      16        2.7152-4      0.      0.      1.
FORCE         11      17        2.7152-4      0.      0.      1.
FORCE         11      18        2.7152-4      0.      0.      1.
FORCE         11      19        2.7152-4      0.      0.      1.
FORCE         11      20        2.7152-4      0.      0.      1.
$ ... 3663 like lines cut
$DYNAMIC
EIGRL         12      0.               1
$SPCs
SPC1           1  123456       1     128     255     382     509     636
             763     890    1017    1144    1271    1398    1525    1652
            1779    1906    2033    2160    2287    2414    2541    2668
            2795    2922    3049    3176    3303    3430    3557    3684
            3811    3938    4065    4192    4319    4446    4573    4700
            4827    4954    5081    5208    5335    5462    5589    5716
            5843    5970    6097    6224    6351    6478    6605    6732
            6859    6986    7113    7240    7367    7494    7621    7748
            7875    8002    8129    8256    8383    8510
