$pyNastran: version=msc
$pyNastran: punch=False
$pyNastran: encoding=utf-8
$pyNastran: nnodes=1128
$pyNastran: nelements=1104
$EXECUTIVE CONTROL DECK
SOL 105
CEND
$CASE CONTROL DECK
DISPLACEMENT(PLOT) = ALL
ECHO = NONE
OLOAD(PLOT) = ALL
SPC = 1
SUBCASE 1
    LOAD = 11
SUBCASE 2
    METHOD = 12
BEGIN BULK
$PARAMS
PARAM*              POST               1
*
$NODES
GRID*                  1                1.0000000000e+034.5000000000e+03
*       -1.000000000e+02                                                
GRID*                  2                1.0000000000e+034.5000000000e+03
*       0.0000000000e+00                                                
GRID*                  3                1.0000000000e+034.4021739130e+03
*       0.0000000000e+00                                                
GRID*                  4                1.0000000000e+034.4021739130e+03
*       -1.000000000e+02                                                
GRID*                  5                1.0000000000e+034.3043478261e+03
*       0.0000000000e+00                                                
GRID*                  6                1.0000000000e+034.3043478261e+03
*       -1.000000000e+02                                                
GRID*                  7                1.0000000000e+034.2065217391e+03
*       0.0000000000e+00                                                
GRID*                  8                1.0000000000e+034.2065217391e+03
*       -1.000000000e+02                                                
GRID*                  9                1.0000000000e+034.1086956522e+03
*       0.0000000000e+00                                                
GRID*                 10                1.0000000000e+034.1086956522e+03
*       -1.000000000e+02                                                
GRID*                 11                1.0000000000e+034.0108695652e+03
*       0.0000000000e+00                                                
GRID*                 12                1.0000000000e+034.0108695652e+03
*       -1.000000000e+02                                                
GRID*                 13                1.0000000000e+033.9130434783e+03
*       0.0000000000e+00                                                
GRID*                 14                1.0000000000e+033.9130434783e+03
*       -1.000000000e+02                                                
GRID*                 15                1.0000000000e+033.8152173913e+03
*       0.0000000000e+00                                                
GRID*                 16                1.0000000000e+033.8152173913e+03
*       -1.000000000e+02                                                
GRID*                 17                1.0000000000e+033.7173913043e+03
*       0.0000000000e+00                                                
GRID*                 18                1.0000000000e+033.7173913043e+03
*       -1.000000000e+02                                                
GRID*                 19                1.0000000000e+033.6195652174e+03
*       0.0000000000e+00                                                
GRID*                 20                1.0000000000e+033.6195652174e+03
*       -1.000000000e+02                                                
$ ... 2216 like lines cut
$ELEMENTS
CQUAD4*                1               1               1               2
*                      3               4                                
CQUAD4*                2               1               4               3
*                      5               6                                
CQUAD4*                3               1               6               5
*                      7               8                                
CQUAD4*                4               1               8               7
*                      9              10                                
CQUAD4*                5               1              10               9
*                     11              12                                
CQUAD4*                6               1              12              11
*                     13              14                                
CQUAD4*                7               1              14              13
*                     15              16                                
CQUAD4*                8               1              16              15
*                     17              18                                
CQUAD4*                9               1              18              17
*                     19              20                                
CQUAD4*               10               1              20              19
*                     21              22                                
CQUAD4*               11               1              22              21
*                     23              24                                
CQUAD4*               12               1              24              23
*                     25              26                                
CQUAD4*               13               1              26              25
*                     27              28                                
CQUAD4*               14               1              28              27
*                     29              30                                
CQUAD4*               15               1              30              29
*                     31              32                                
CQUAD4*               16               1              32              31
*                     33              34                                
CQUAD4*               17               1              34              33
*                     35              36                                
CQUAD4*               18               1              36              35
*                     37              38                                
CQUAD4*               19               1              38              37
*                     39              40                                
CQUAD4*               20               1              40              39
*                     41              42                                
$ ... 2168 like lines cut
$PROPERTIES
PSHELL*                1               1              4.               1
*                                      1
$MATERIALS
MAT1*                  1          73100.                              .3
*           .00000000278
$LOADS
FORCE*                11              95                2.1141649049e-03
*       0.0000000000e+000.0000000000e+001.0000000000e+00
FORCE*                11              96                2.1141649049e-03
*       0.0000000000e+000.0000000000e+001.0000000000e+00
FORCE*                11              97                2.1141649049e-03
*       0.0000000000e+000.0000000000e+001.0000000000e+00
FORCE*                11              98                2.1141649049e-03
*       0.0000000000e+000.0000000000e+001.0000000000e+00
FORCE*                11             100                2.1141649049e-03
*       0.0000000000e+000.0000000000e+001.0000000000e+00
FORCE*                11             101                2.1141649049e-03
*       0.0000000000e+000.0000000000e+001.0000000000e+00
FORCE*                11             102                2.1141649049e-03
*       0.0000000000e+000.0000000000e+001.0000000000e+00
FORCE*                11             103                2.1141649049e-03
*       0.0000000000e+000.0000000000e+001.0000000000e+00
FORCE*                11             104                2.1141649049e-03
*       0.0000000000e+000.0000000000e+001.0000000000e+00
FORCE*                11             105                2.1141649049e-03
*       0.0000000000e+000.0000000000e+001.0000000000e+00
FORCE*                11             109                2.1141649049e-03
*       0.0000000000e+000.0000000000e+001.0000000000e+00
FORCE*                11             110                2.1141649049e-03
*       0.0000000000e+000.0000000000e+001.0000000000e+00
FORCE*                11             111                2.1141649049e-03
*       0.0000000000e+000.0000000000e+001.0000000000e+00
FORCE*                11             112                2.1141649049e-03
*       0.0000000000e+000.0000000000e+001.0000000000e+00
FORCE*                11             113                2.1141649049e-03
*       0.0000000000e+000.0000000000e+001.0000000000e+00
FORCE*                11             114                2.1141649049e-03
*       0.0000000000e+000.0000000000e+001.0000000000e+00
FORCE*                11             115                2.1141649049e-03
*       0.0000000000e+000.0000000000e+001.0000000000e+00
FORCE*                11             116                2.1141649049e-03
*       0.0000000000e+000.0000000000e+001.0000000000e+00
FORCE*                11             117                2.1141649049e-03
*       0.0000000000e+000.0000000000e+001.0000000000e+00
FORCE*                11             118                2.1141649049e-03
*       0.0000000000e+000.0000000000e+001.0000000000e+00
$ ... 906 like lines cut
$DYNAMIC
EIGRL*                12              0.                               1
*
$SPCs
SPC1           1  123456      93      94     141     142     143     236
             283     330     377     424     471     518     565     704
             705     752     799     846     893     940     987    1034
            1081    1082
