$pyNastran: version=msc
$pyNastran: punch=False
$pyNastran: encoding=utf-8
$pyNastran: nnodes=8636
$pyNastran: nelements=8568
$EXECUTIVE CONTROL DECK
SOL 105
CEND
$CASE CONTROL DECK
DISPLACEMENT(PLOT) = ALL
ECHO = NONE
OLOAD(PLOT) = ALL
SPC = 1
SUBCASE 1
    LOAD = 11
BEGIN BULK
$PARAMS
PARAM*              POST               1
*
$NODES
GRID*                  1                1.0000000000e+034.5000000000e+03
*       -1.000000000e+02                                                
GRID*                  2                1.0000000000e+034.5000000000e+03
*       -6.666666667e+01                                                
GRID*                  3                1.0000000000e+034.4642857143e+03
*       -6.666666667e+01                                                
GRID*                  4                1.0000000000e+034.4642857143e+03
*       -1.000000000e+02                                                
GRID*                  5                1.0000000000e+034.4285714286e+03
*       -6.666666667e+01                                                
GRID*                  6                1.0000000000e+034.4285714286e+03
*       -1.000000000e+02                                                
GRID*                  7                1.0000000000e+034.3928571429e+03
*       -6.666666667e+01                                                
GRID*                  8                1.0000000000e+034.3928571429e+03
*       -1.000000000e+02                                                
GRID*                  9                1.0000000000e+034.3571428571e+03
*       -6.666666667e+01                                                
GRID*                 10                1.0000000000e+034.3571428571e+03
*       -1.000000000e+02                                                
GRID*                 11                1.0000000000e+034.3214285714e+03
*       -6.666666667e+01                                                
GRID*                 12                1.0000000000e+034.3214285714e+03
*       -1.000000000e+02                                                
GRID*                 13                1.0000000000e+034.2857142857e+03
*       -6.666666667e+01                                                
GRID*                 14                1.0000000000e+034.2857142857e+03
*       -1.000000000e+02                                                
GRID*                 15                1.0000000000e+034.2500000000e+03
*       -6.666666667e+01                                                
GRID*                 16                1.0000000000e+034.2500000000e+03
*       -1.000000000e+02                                                
GRID*                 17                1.0000000000e+034.2142857143e+03
*       -6.666666667e+01                                                
GRID*                 18                1.0000000000e+034.2142857143e+03
*       -1.000000000e+02                                                
GRID*                 19                1.0000000000e+034.1785714286e+03
*       -6.666666667e+01                                                
GRID*                 20                1.0000000000e+034.1785714286e+03
*       -1.000000000e+02                                                
$ ... 17232 like lines cut
$ELEMENTS
CQUAD4*                1               1               1               2
*                      3               4                                
CQUAD4*                2               1               4               3
*                      5               6                                
CQUAD4*                3               1               6               5
*                      7               8                                
CQUAD4*                4               1               8               7
*                      9              10                                
CQUAD4*                5               1              10               9
*                     11              12                                
CQUAD4*                6               1              12              11
*                     13              14                                
CQUAD4*                7               1              14              13
*                     15              16                                
CQUAD4*                8               1              16              15
*                     17              18                                
CQUAD4*                9               1              18              17
*                     19              20                                
CQUAD4*               10               1              20              19
*                     21              22                                
CQUAD4*               11               1              22              21
*                     23              24                                
CQUAD4*               12               1              24              23
*                     25              26                                
CQUAD4*               13               1              26              25
*                     27              28                                
CQUAD4*               14               1              28              27
*                     29              30                                
CQUAD4*               15               1              30              29
*                     31              32                                
CQUAD4*               16               1              32              31
*                     33              34                                
CQUAD4*               17               1              34              33
*                     35              36                                
CQUAD4*               18               1              36              35
*                     37              38                                
CQUAD4*               19               1              38              37
*                     39              40                                
CQUAD4*               20               1              40              39
*                     41              42                                
$ ... 17096 like lines cut
$PROPERTIES
PSHELL*                1               1              4.               1
*                                      1
$MATERIALS
MAT1*                  1          73100.                              .3
*           .00000000278
$LOADS
FORCE*                11             763                2.8264556246e-04
*       0.0000000000e+000.0000000000e+001.0000000000e+00
FORCE*                11             765                2.8264556246e-04
*       0.0000000000e+000.0000000000e+001.0000000000e+00
FORCE*                11             766                2.8264556246e-04
*       0.0000000000e+000.0000000000e+001.0000000000e+00
FORCE*                11             767                2.8264556246e-04
*       0.0000000000e+000.0000000000e+001.0000000000e+00
FORCE*                11             768                2.8264556246e-04
*       0.0000000000e+000.0000000000e+001.0000000000e+00
FORCE*                11             770                2.8264556246e-04
*       0.0000000000e+000.0000000000e+001.0000000000e+00
FORCE*                11             771                2.8264556246e-04
*       0.0000000000e+000.0000000000e+001.0000000000e+00
FORCE*                11             772                2.8264556246e-04
*       0.0000000000e+000.0000000000e+001.0000000000e+00
FORCE*                11             773                2.8264556246e-04
*       0.0000000000e+000.0000000000e+001.0000000000e+00
FORCE*                11             774                2.8264556246e-04
*       0.0000000000e+000.0000000000e+001.0000000000e+00
FORCE*                11             775                2.8264556246e-04
*       0.0000000000e+000.0000000000e+001.0000000000e+00
FORCE*                11             776                2.8264556246e-04
*       0.0000000000e+000.0000000000e+001.0000000000e+00
FORCE*                11             777                2.8264556246e-04
*       0.0000000000e+000.0000000000e+001.0000000000e+00
FORCE*                11             779                2.8264556246e-04
*       0.0000000000e+000.0000000000e+001.0000000000e+00
FORCE*                11             780                2.8264556246e-04
*       0.0000000000e+000.0000000000e+001.0000000000e+00
FORCE*                11             781                2.8264556246e-04
*       0.0000000000e+000.0000000000e+001.0000000000e+00
FORCE*                11             782                2.8264556246e-04
*       0.0000000000e+000.0000000000e+001.0000000000e+00
FORCE*                11             783                2.8264556246e-04
*       0.0000000000e+000.0000000000e+001.0000000000e+00
FORCE*                11             784                2.8264556246e-04
*       0.0000000000e+000.0000000000e+001.0000000000e+00
FORCE*                11             786                2.8264556246e-04
*       0.0000000000e+000.0000000000e+001.0000000000e+00
$ ... 7036 like lines cut
$SPCs
SPC1           1  123456     253     254     381     508     635     762
             889     890     891    1144    1271    1398    1525    1652
            1779    1906    2033    2160    2287    2414    2541    2668
            2795    2922    3049    3176    3303    3430    3557    3684
            3811    3938    4065    4192    4319    4698    4699    4826
            4953    5080    5207    5334    5461    5588    5715    5842
            5969    6096    6223    6350    6477    6604    6731    6858
            6985    7112    7239    7366    7493    7620    7747    7874
            8001    8002    8129    8256    8383    8510
