$pyNastran: version=msc
$pyNastran: punch=False
$pyNastran: encoding=utf-8
$pyNastran: nnodes=5208
$pyNastran: nelements=5152
$EXECUTIVE CONTROL DECK
SOL 105
CEND
$CASE CONTROL DECK
DISPLACEMENT(PLOT) = ALL
ECHO = NONE
OLOAD(PLOT) = ALL
SPC = 1
SUBCASE 1
    LOAD = 11
SUBCASE 2
    METHOD = 12
BEGIN BULK
$PARAMS
PARAM       POST       1
$NODES
GRID           1              0.      0.    100.
GRID           2              0.48.91304    100.
GRID           3              0.97.82609    100.
GRID           4              0.146.7391    100.
GRID           5              0.195.6522    100.
GRID           6              0.244.5652    100.
GRID           7              0.293.4783    100.
GRID           8              0.342.3913    100.
GRID           9              0.391.3043    100.
GRID          10              0.440.2174    100.
GRID          11              0.489.1304    100.
GRID          12              0.538.0435    100.
GRID          13              0.586.9565    100.
GRID          14              0.635.8696    100.
GRID          15              0.684.7826    100.
GRID          16              0.733.6957    100.
GRID          17              0.782.6087    100.
GRID          18              0.831.5217    100.
GRID          19              0.880.4348    100.
GRID          20              0.929.3478    100.
$ ... 5188 like lines cut
$ELEMENTS
CQUAD4         1       1       1       2      95      94
CQUAD4         2       1      94      95     188     187
CQUAD4         3       1     187     188     281     280
CQUAD4         4       1     280     281     374     373
CQUAD4         5       1     373     374     467     466
CQUAD4         6       1     466     467     560     559
CQUAD4         7       1     559     560     653     652
CQUAD4         8       1     652     653     746     745
CQUAD4         9       1     745     746     839     838
CQUAD4        10       1     838     839     932     931
CQUAD4        11       1     931     932    1025    1024
CQUAD4        12       1    1024    1025    1118    1117
CQUAD4        13       1    1117    1118    1211    1210
CQUAD4        14       1    1210    1211    1304    1303
CQUAD4        15       1    1303    1304    1397    1396
CQUAD4        16       1    1396    1397    1490    1489
CQUAD4        17       1    1489    1490    1583    1582
CQUAD4        18       1    1582    1583    1676    1675
CQUAD4        19       1    1675    1676    1769    1768
CQUAD4        20       1    1768    1769    1862    1861
$ ... 5132 like lines cut
$PROPERTIES
PSHELL         1       1      4.       1               1
$MATERIALS
MAT1           1  73100.              .3  2.78-9
$LOADS
FORCE         11       1        4.6751-4      0.      0.      1.
FORCE         11       2        4.6751-4      0.      0.      1.
FORCE         11       3        4.6751-4      0.      0.      1.
FORCE         11       4        4.6751-4      0.      0.      1.
FORCE         11       5        4.6751-4      0.      0.      1.
FORCE         11       6        4.6751-4      0.      0.      1.
FORCE         11       7        4.6751-4      0.      0.      1.
FORCE         11       8        4.6751-4      0.      0.      1.
FORCE         11       9        4.6751-4      0.      0.      1.
FORCE         11      10        4.6751-4      0.      0.      1.
FORCE         11      11        4.6751-4      0.      0.      1.
FORCE         11      12        4.6751-4      0.      0.      1.
FORCE         11      13        4.6751-4      0.      0.      1.
FORCE         11      14        4.6751-4      0.      0.      1.
FORCE         11      15        4.6751-4      0.      0.      1.
FORCE         11      16        4.6751-4      0.      0.      1.
FORCE         11      17        4.6751-4      0.      0.      1.
FORCE         11      18        4.6751-4      0.      0.      1.
FORCE         11      19        4.6751-4      0.      0.      1.
FORCE         11      20        4.6751-4      0.      0.      1.
$ ... 2119 like lines cut
$DYNAMIC
EIGRL         12      0.               1
$SPCs
SPC1           1  123456       1      94     187     280     373     466
             559     652     745     838     931    1024    1117    1210
            1303    1396    1489    1582    1675    1768    1861    1954
            2047    2140    2233    2326    2419    2512    2605    2698
            2791    2884    2977    3070    3163    3256    3349    3442
            3535    3628    3721    3814    3907    4000    4093    4186
            4279    4372    4465    4558    4651    4744    4837    4930
            5023    5116
