$pyNastran: version=msc
$pyNastran: punch=False
$pyNastran: encoding=utf-8
$pyNastran: nnodes=400
$pyNastran: nelements=384
$EXECUTIVE CONTROL DECK
SOL 105
CEND
$CASE CONTROL DECK
DISPLACEMENT(PLOT) = ALL
ECHO = NONE
OLOAD(PLOT) = ALL
SPC = 1
SPCFORCES(PLOT) = ALL
SUBCASE 1
    LOAD = 11
SUBCASE 2
    METHOD = 12
BEGIN BULK
$PARAMS
PARAM       POST       1
$NODES
GRID           1              0.      0.    100.
GRID           2              0.   187.5    100.
GRID           3              0.    375.    100.
GRID           4              0.   562.5    100.
GRID           5              0.    750.    100.
GRID           6              0.   937.5    100.
GRID           7              0.   1125.    100.
GRID           8              0.  1312.5    100.
GRID           9              0.   1500.    100.
GRID          10              0.  1687.5    100.
GRID          11              0.   1875.    100.
GRID          12              0.  2062.5    100.
GRID          13              0.   2250.    100.
GRID          14              0.  2437.5    100.
GRID          15              0.   2625.    100.
GRID          16              0.  2812.5    100.
GRID          17              0.   3000.    100.
GRID          18              0.  3187.5    100.
GRID          19              0.   3375.    100.
GRID          20              0.  3562.5    100.
$ ... 380 like lines cut
$ELEMENTS
CQUAD4         1       1       1       2      27      26
CQUAD4         2       1      26      27      52      51
CQUAD4         3       1      51      52      77      76
CQUAD4         4       1      76      77     102     101
CQUAD4         5       1     101     102     127     126
CQUAD4         6       1     126     127     152     151
CQUAD4         7       1     151     152     177     176
CQUAD4         8       1     176     177     202     201
CQUAD4         9       1     201     202     227     226
CQUAD4        10       1     226     227     252     251
CQUAD4        11       1     251     252     277     276
CQUAD4        12       1     276     277     302     301
CQUAD4        13       1     301     302     327     326
CQUAD4        14       1     326     327     352     351
CQUAD4        15       1     351     352     377     376
CQUAD4        16       1     376     377       2       1
CQUAD4        17       1       2       3      28      27
CQUAD4        18       1      27      28      53      52
CQUAD4        19       1      52      53      78      77
CQUAD4        20       1      77      78     103     102
$ ... 364 like lines cut
$PROPERTIES
PSHELL         1       1      4.       1               1
$MATERIALS
MAT1           1  73100.              .3  2.78-9
$LOADS
FORCE         11       1        .0057143      0.      0.      1.
FORCE         11       2        .0057143      0.      0.      1.
FORCE         11       3        .0057143      0.      0.      1.
FORCE         11       4        .0057143      0.      0.      1.
FORCE         11       5        .0057143      0.      0.      1.
FORCE         11       6        .0057143      0.      0.      1.
FORCE         11       7        .0057143      0.      0.      1.
FORCE         11       8        .0057143      0.      0.      1.
FORCE         11       9        .0057143      0.      0.      1.
FORCE         11      10        .0057143      0.      0.      1.
FORCE         11      11        .0057143      0.      0.      1.
FORCE         11      12        .0057143      0.      0.      1.
FORCE         11      13        .0057143      0.      0.      1.
FORCE         11      14        .0057143      0.      0.      1.
FORCE         11      15        .0057143      0.      0.      1.
FORCE         11      16        .0057143      0.      0.      1.
FORCE         11      17        .0057143      0.      0.      1.
FORCE         11      18        .0057143      0.      0.      1.
FORCE         11      19        .0057143      0.      0.      1.
FORCE         11      20        .0057143      0.      0.      1.
$ ... 155 like lines cut
$DYNAMIC
EIGRL         12      0.               1
$SPCs
SPC1           1  123456       1      26      51      76     101     126
             151     176     201     226     251     276     301     326
             351     376
