$pyNastran: version=msc
$pyNastran: punch=False
$pyNastran: encoding=utf-8
$pyNastran: nnodes=3019
$pyNastran: nelements=3152
$EXECUTIVE CONTROL DECK
SOL 105
CEND
$CASE CONTROL DECK
DISPLACEMENT(PLOT) = ALL
ECHO = NONE
OLOAD(PLOT) = ALL
SPC = 1
SUBCASE 1
    LOAD = 11
SUBCASE 2
    METHOD = 12
BEGIN BULK
$PARAMS
PARAM*              POST               1
*
$NODES
GRID*                  1                1.0000000000e+035.0000000000e+02
*       -1.000000000e+02                                                
GRID*                  2                1.0000000000e+035.0000000000e+02
*       -5.000000000e+01                                                
GRID*                  3                1.0000000000e+034.3750000000e+02
*       -5.000000000e+01                                                
GRID*                  4                1.0000000000e+034.3750000000e+02
*       -1.000000000e+02                                                
GRID*                  5                1.0000000000e+033.7500000000e+02
*       -5.000000000e+01                                                
GRID*                  6                1.0000000000e+033.7500000000e+02
*       -1.000000000e+02                                                
GRID*                  7                1.0000000000e+033.1250000000e+02
*       -5.000000000e+01                                                
GRID*                  8                1.0000000000e+033.1250000000e+02
*       -1.000000000e+02                                                
GRID*                  9                1.0000000000e+032.5000000000e+02
*       -5.000000000e+01                                                
GRID*                 10                1.0000000000e+032.5000000000e+02
*       -1.000000000e+02                                                
GRID*                 11                1.0000000000e+031.8750000000e+02
*       -5.000000000e+01                                                
GRID*                 12                1.0000000000e+031.8750000000e+02
*       -1.000000000e+02                                                
GRID*                 13                1.0000000000e+031.2500000000e+02
*       -5.000000000e+01                                                
GRID*                 14                1.0000000000e+031.2500000000e+02
*       -1.000000000e+02                                                
GRID*                 15                1.0000000000e+036.2500000000e+01
*       -5.000000000e+01                                                
GRID*                 16                1.0000000000e+036.2500000000e+01
*       -1.000000000e+02                                                
GRID*                 17                1.0000000000e+030.0000000000e+00
*       -5.000000000e+01                                                
GRID*                 18                1.0000000000e+030.0000000000e+00
*       -1.000000000e+02                                                
GRID*                 19                1.0000000000e+035.0000000000e+02
*       0.0000000000e+00                                                
GRID*                 20                1.0000000000e+034.3750000000e+02
*       0.0000000000e+00                                                
$ ... 5998 like lines cut
$ELEMENTS
CQUAD4*                1               1               1               2
*                      3               4                                
CQUAD4*                2               1               4               3
*                      5               6                                
CQUAD4*                3               1               6               5
*                      7               8                                
CQUAD4*                4               1               8               7
*                      9              10                                
CQUAD4*                5               1              10               9
*                     11              12                                
CQUAD4*                6               1              12              11
*                     13              14                                
CQUAD4*                7               1              14              13
*                     15              16                                
CQUAD4*                8               1              16              15
*                     17              18                                
CQUAD4*                9               1               2              19
*                     20               3                                
CQUAD4*               10               1               3              20
*                     21               5                                
CQUAD4*               11               1               5              21
*                     22               7                                
CQUAD4*               12               1               7              22
*                     23               9                                
CQUAD4*               13               1               9              23
*                     24              11                                
CQUAD4*               14               1              11              24
*                     25              13                                
CQUAD4*               15               1              13              25
*                     26              15                                
CQUAD4*               16               1              15              26
*                     27              17                                
CQUAD4*               17               1              19              28
*                     29              20                                
CQUAD4*               18               1              20              29
*                     30              21                                
CQUAD4*               19               1              21              30
*                     31              22                                
CQUAD4*               20               1              22              31
*                     32              23                                
$ ... 6264 like lines cut
$PROPERTIES
PSHELL*                1               1              4.               1
*                                      1
$MATERIALS
MAT1*                  1          73100.                              .3
*           .00000000278
$RIGID ELEMENTS
RBE3*               3153                            3019          123456
*                     1.          123456            2646              1.
*                 123456            2647              1.          123456
*                   2655              1.          123456            2663
*                     1.          123456            2671              1.
*                 123456            2672              1.          123456
*                   2673              1.          123456            2688
*                     1.          123456            2696              1.
*                 123456            2704              1.          123456
*                   2758              1.          123456            2766
*                     1.          123456            2774              1.
*                 123456            2782              1.          123456
*                   2790              1.          123456            2798
*                     1.          123456            2806              1.
*                 123456            2814              1.          123456
*                   2822              1.          123456            2830
*                     1.          123456            2838              1.
*                 123456            2846              1.          123456
*                   2854              1.          123456            2855
*                     1.          123456            2863              1.
*                 123456            2871              1.          123456
$ ... 7 like lines cut
$LOADS
FORCE*                11            3019                1.0000000000e+00
*       0.0000000000e+000.0000000000e+001.0000000000e+00
$DYNAMIC
EIGRL*                12              0.                               1
*
$SPCs
SPC1           1  123456      17      18      27      36      45      46
              47      48      49      50      51      52      53      54
              55      56      57      58      59      60      61      62
              63      64      65      66      67      68      69      70
              71      72      73      74      75      76      77      78
              79      80      81      82      83      84      85      86
              87      88      89      90      91      92      93      94
              95      96      97      98      99     100     101     102
             103     104     105     106     107     108     109     110
             111     112     113     114     115
