$pyNastran: version=msc
$pyNastran: punch=False
$pyNastran: encoding=utf-8
$pyNastran: nnodes=8365
$pyNastran: nelements=8296
$EXECUTIVE CONTROL DECK
SOL 105
CEND
$CASE CONTROL DECK
DISPLACEMENT(PLOT) = ALL
ECHO = NONE
OLOAD(PLOT) = ALL
SPC = 1
SPCFORCES(PLOT) = ALL
SUBCASE 1
    LOAD = 11
SUBCASE 2
    METHOD = 12
BEGIN BULK
$PARAMS
PARAM       POST       1
$NODES
GRID           1              0.      0.    100.
GRID           2              0.36.88525    100.
GRID           3              0.73.77049    100.
GRID           4              0.110.6557    100.
GRID           5              0. 147.541    100.
GRID           6              0.184.4262    100.
GRID           7              0.221.3115    100.
GRID           8              0.258.1967    100.
GRID           9              0. 295.082    100.
GRID          10              0.331.9672    100.
GRID          11              0.368.8525    100.
GRID          12              0.405.7377    100.
GRID          13              0. 442.623    100.
GRID          14              0.479.5082    100.
GRID          15              0.516.3934    100.
GRID          16              0.553.2787    100.
GRID          17              0.590.1639    100.
GRID          18              0.627.0492    100.
GRID          19              0.663.9344    100.
GRID          20              0.700.8197    100.
$ ... 8345 like lines cut
$ELEMENTS
CQUAD4         1       1       1       2     125     124
CQUAD4         2       1     124     125     248     247
CQUAD4         3       1     247     248     371     370
CQUAD4         4       1     370     371     494     493
CQUAD4         5       1     493     494     617     616
CQUAD4         6       1     616     617     740     739
CQUAD4         7       1     739     740     863     862
CQUAD4         8       1     862     863     986     985
CQUAD4         9       1     985     986    1109    1108
CQUAD4        10       1    1108    1109    1232    1231
CQUAD4        11       1    1231    1232    1355    1354
CQUAD4        12       1    1354    1355    1478    1477
CQUAD4        13       1    1477    1478    1601    1600
CQUAD4        14       1    1600    1601    1724    1723
CQUAD4        15       1    1723    1724    1847    1846
CQUAD4        16       1    1846    1847    1970    1969
CQUAD4        17       1    1969    1970    2093    2092
CQUAD4        18       1    2092    2093    2216    2215
CQUAD4        19       1    2215    2216    2339    2338
CQUAD4        20       1    2338    2339    2462    2461
$ ... 8276 like lines cut
$PROPERTIES
PSHELL         1       1      4.       1               1
$MATERIALS
MAT1           1  73100.              .3  2.78-9
$RIGID ELEMENTS
RBE3        8297            8365  123456      1.  123456     123      1.
          123456     246      1.  123456     369      1.  123456     492
              1.  123456     615      1.  123456     738      1.  123456
             861      1.  123456     984      1.  123456    1107      1.
          123456    1230      1.  123456    1353      1.  123456    1476
              1.  123456    1599      1.  123456    1722      1.  123456
            1845      1.  123456    1968      1.  123456    2091      1.
          123456    2214      1.  123456    2337      1.  123456    2460
              1.  123456    2583      1.  123456    2706      1.  123456
            2829      1.  123456    2952      1.  123456    3075      1.
          123456    3198      1.  123456    3321      1.  123456    3444
              1.  123456    3567      1.  123456    3690      1.  123456
            3813      1.  123456    3936      1.  123456    4059      1.
          123456    4182      1.  123456    4305      1.  123456    4428
              1.  123456    4551      1.  123456    4674      1.  123456
            4797      1.  123456    4920      1.  123456    5043      1.
          123456    5166      1.  123456    5289      1.  123456    5412
              1.  123456    5535      1.  123456    5658      1.  123456
            5781      1.  123456    5904      1.  123456    6027      1.
          123456    6150      1.  123456    6273      1.  123456    6396
              1.  123456    6519      1.  123456    6642      1.  123456
$ ... 5 like lines cut
$LOADS
FORCE         11    8365              1.      0.      0.      1.
$DYNAMIC
EIGRL         12      0.               1
$SPCs
SPC1           1  123456       1     124     247     370     493     616
             739     862     985    1108    1231    1354    1477    1600
            1723    1846    1969    2092    2215    2338    2461    2584
            2707    2830    2953    3076    3199    3322    3445    3568
            3691    3814    3937    4060    4183    4306    4429    4552
            4675    4798    4921    5044    5167    5290    5413    5536
            5659    5782    5905    6028    6151    6274    6397    6520
            6643    6766    6889    7012    7135    7258    7381    7504
            7627    7750    7873    7996    8119    8242
