$pyNastran: version=msc
$pyNastran: punch=False
$pyNastran: encoding=utf-8
$pyNastran: nnodes=621
$pyNastran: nelements=600
$EXECUTIVE CONTROL DECK
SOL 105
CEND
$CASE CONTROL DECK
DISPLACEMENT(PLOT) = ALL
ECHO = NONE
OLOAD(PLOT) = ALL
SPC = 1
SPCFORCES(PLOT) = ALL
SUBCASE 1
    LOAD = 11
SUBCASE 2
    METHOD = 12
BEGIN BULK
$PARAMS
PARAM       POST       1
$NODES
GRID           1              0.      0.    100.
GRID           2              0.    150.    100.
GRID           3              0.    300.    100.
GRID           4              0.    450.    100.
GRID           5              0.    600.    100.
GRID           6              0.    750.    100.
GRID           7              0.    900.    100.
GRID           8              0.   1050.    100.
GRID           9              0.   1200.    100.
GRID          10              0.   1350.    100.
GRID          11              0.   1500.    100.
GRID          12              0.   1650.    100.
GRID          13              0.   1800.    100.
GRID          14              0.   1950.    100.
GRID          15              0.   2100.    100.
GRID          16              0.   2250.    100.
GRID          17              0.   2400.    100.
GRID          18              0.   2550.    100.
GRID          19              0.   2700.    100.
GRID          20              0.   2850.    100.
$ ... 601 like lines cut
$ELEMENTS
CQUAD4         1       1       1       2      33      32
CQUAD4         2       1      32      33      64      63
CQUAD4         3       1      63      64      95      94
CQUAD4         4       1      94      95     126     125
CQUAD4         5       1     125     126     157     156
CQUAD4         6       1     156     157     188     187
CQUAD4         7       1     187     188     219     218
CQUAD4         8       1     218     219     250     249
CQUAD4         9       1     249     250     281     280
CQUAD4        10       1     280     281     312     311
CQUAD4        11       1     311     312     343     342
CQUAD4        12       1     342     343     374     373
CQUAD4        13       1     373     374     405     404
CQUAD4        14       1     404     405     436     435
CQUAD4        15       1     435     436     467     466
CQUAD4        16       1     466     467     498     497
CQUAD4        17       1     497     498     529     528
CQUAD4        18       1     528     529     560     559
CQUAD4        19       1     559     560     591     590
CQUAD4        20       1     590     591       2       1
$ ... 580 like lines cut
$PROPERTIES
PSHELL         1       1      4.       1               1
$MATERIALS
MAT1           1  73100.              .3  2.78-9
$RIGID ELEMENTS
RBE3         601             621  123456      1.  123456      31      1.
          123456      62      1.  123456      93      1.  123456     124
              1.  123456     155      1.  123456     186      1.  123456
             217      1.  123456     248      1.  123456     279      1.
          123456     310      1.  123456     341      1.  123456     372
              1.  123456     403      1.  123456     434      1.  123456
             465      1.  123456     496      1.  123456     527      1.
          123456     558      1.  123456     589      1.  123456     620
$LOADS
FORCE         11     621              1.      0.      0.      1.
$DYNAMIC
EIGRL         12      0.               1
$SPCs
SPC1           1  123456       1      32      63      94     125     156
             187     218     249     280     311     342     373     404
             435     466     497     528     559     590
