$pyNastran: version=msc
$pyNastran: punch=False
$pyNastran: encoding=utf-8
$pyNastran: nnodes=2091
$pyNastran: nelements=2208
$EXECUTIVE CONTROL DECK
SOL 105
CEND
$CASE CONTROL DECK
DISPLACEMENT(PLOT) = ALL
ECHO = NONE
OLOAD(PLOT) = ALL
SPC = 1
SUBCASE 1
    LOAD = 11
SUBCASE 2
    METHOD = 12
BEGIN BULK
$PARAMS
PARAM       POST       1
$NODES
GRID           1           1000.      0.    100.
GRID           2        916.6666      0.    100.
GRID           3        916.666683.33333    100.
GRID           4           1000.83.33333    100.
GRID           5        833.3334      0.    100.
GRID           6        833.333483.33333    100.
GRID           7            750.      0.    100.
GRID           8            750.83.33333    100.
GRID           9        666.6667      0.    100.
GRID          10        666.666783.33333    100.
GRID          11        583.3333      0.    100.
GRID          12        583.333383.33333    100.
GRID          13            500.      0.    100.
GRID          14            500.83.33333    100.
GRID          15        416.6667      0.    100.
GRID          16        416.666783.33333    100.
GRID          17        333.3333      0.    100.
GRID          18        333.333383.33333    100.
GRID          19            250.      0.    100.
GRID          20            250.83.33333    100.
$ ... 2071 like lines cut
$ELEMENTS
CQUAD4         1       1       1       2       3       4
CQUAD4         2       1       2       5       6       3
CQUAD4         3       1       5       7       8       6
CQUAD4         4       1       7       9      10       8
CQUAD4         5       1       9      11      12      10
CQUAD4         6       1      11      13      14      12
CQUAD4         7       1      13      15      16      14
CQUAD4         8       1      15      17      18      16
CQUAD4         9       1      17      19      20      18
CQUAD4        10       1      19      21      22      20
CQUAD4        11       1      21      23      24      22
CQUAD4        12       1      23      25      26      24
CQUAD4        13       1       4       3      27      28
CQUAD4        14       1       3       6      29      27
CQUAD4        15       1       6       8      30      29
CQUAD4        16       1       8      10      31      30
CQUAD4        17       1      10      12      32      31
CQUAD4        18       1      12      14      33      32
CQUAD4        19       1      14      16      34      33
CQUAD4        20       1      16      18      35      34
$ ... 2188 like lines cut
$PROPERTIES
PSHELL         1       1      4.       1               1
$MATERIALS
MAT1           1  73100.              .3  2.78-9
$RIGID ELEMENTS
RBE3        2209            2091  123456      1.  123456    1634      1.
          123456    1635      1.  123456    1636      1.  123456    1637
              1.  123456    1638      1.  123456    1639      1.  123456
            1640      1.  123456    1641      1.  123456    1642      1.
          123456    1643      1.  123456    1644      1.  123456    1645
              1.  123456    1646      1.  123456    1712      1.  123456
            1713      1.  123456    1714      1.  123456    1715      1.
          123456    1716      1.  123456    1717      1.  123456    1718
              1.  123456    1719      1.  123456    1720      1.  123456
            1721      1.  123456    1722      1.  123456    1723      1.
          123456    1724      1.  123456    1740      1.  123456    1741
              1.  123456    1742      1.  123456    1758      1.  123456
            1759      1.  123456    1760
$LOADS
FORCE         11    2091              1.      0.      0.      1.
$DYNAMIC
EIGRL         12      0.               1
$SPCs
SPC1           1  123456       1       2       5       7       9      11
              13      15      17      19      21      23      25      92
              93      96      98     100     102     104     106     108
             110     112     114     116     183     185     187     204
             206     208    1761    1762    1763    1764    1765    1766
            1767    1768    1769    1770    1771    1772    1773    1774
            1775    1776    1777    1778    1779    1780    1781    1782
            1783    1784    1785    1786    1787    1788    1789    1790
            1791    1792    1793
