$pyNastran: version=msc
$pyNastran: punch=False
$pyNastran: encoding=utf-8
$pyNastran: nnodes=3371
$pyNastran: nelements=3520
$EXECUTIVE CONTROL DECK
SOL 105
CEND
$CASE CONTROL DECK
DISPLACEMENT(PLOT) = ALL
ECHO = NONE
OLOAD(PLOT) = ALL
SPC = 1
SUBCASE 1
    LOAD = 11
SUBCASE 2
    METHOD = 12
BEGIN BULK
$PARAMS
PARAM       POST       1
$NODES
GRID           1           1000.      0.    100.
GRID           2           937.5      0.    100.
GRID           3           937.5    62.5    100.
GRID           4           1000.    62.5    100.
GRID           5            875.      0.    100.
GRID           6            875.    62.5    100.
GRID           7           812.5      0.    100.
GRID           8           812.5    62.5    100.
GRID           9            750.      0.    100.
GRID          10            750.    62.5    100.
GRID          11           687.5      0.    100.
GRID          12           687.5    62.5    100.
GRID          13            625.      0.    100.
GRID          14            625.    62.5    100.
GRID          15           562.5      0.    100.
GRID          16           562.5    62.5    100.
GRID          17            500.      0.    100.
GRID          18            500.    62.5    100.
GRID          19           437.5      0.    100.
GRID          20           437.5    62.5    100.
$ ... 3351 like lines cut
$ELEMENTS
CQUAD4         1       1       1       2       3       4
CQUAD4         2       1       2       5       6       3
CQUAD4         3       1       5       7       8       6
CQUAD4         4       1       7       9      10       8
CQUAD4         5       1       9      11      12      10
CQUAD4         6       1      11      13      14      12
CQUAD4         7       1      13      15      16      14
CQUAD4         8       1      15      17      18      16
CQUAD4         9       1      17      19      20      18
CQUAD4        10       1      19      21      22      20
CQUAD4        11       1      21      23      24      22
CQUAD4        12       1      23      25      26      24
CQUAD4        13       1      25      27      28      26
CQUAD4        14       1      27      29      30      28
CQUAD4        15       1      29      31      32      30
CQUAD4        16       1      31      33      34      32
CQUAD4        17       1       4       3      35      36
CQUAD4        18       1       3       6      37      35
CQUAD4        19       1       6       8      38      37
CQUAD4        20       1       8      10      39      38
$ ... 3500 like lines cut
$PROPERTIES
PSHELL         1       1      4.       1               1
$MATERIALS
MAT1           1  73100.              .3  2.78-9
$RIGID ELEMENTS
RBE3        3521            3371  123456      1.  123456    2720      1.
          123456    2721      1.  123456    2722      1.  123456    2723
              1.  123456    2724      1.  123456    2725      1.  123456
            2726      1.  123456    2727      1.  123456    2728      1.
          123456    2729      1.  123456    2730      1.  123456    2731
              1.  123456    2732      1.  123456    2733      1.  123456
            2734      1.  123456    2735      1.  123456    2736      1.
          123456    2856      1.  123456    2857      1.  123456    2858
              1.  123456    2859      1.  123456    2860      1.  123456
            2861      1.  123456    2862      1.  123456    2863      1.
          123456    2864      1.  123456    2865      1.  123456    2866
              1.  123456    2867      1.  123456    2868      1.  123456
            2869      1.  123456    2870      1.  123456    2871      1.
          123456    2872      1.  123456    2894      1.  123456    2895
              1.  123456    2896      1.  123456    2918      1.  123456
            2919      1.  123456    2920
$LOADS
FORCE         11    3371              1.      0.      0.      1.
$DYNAMIC
EIGRL         12      0.               1
$SPCs
SPC1           1  123456       1       2       5       7       9      11
              13      15      17      19      21      23      25      27
              29      31      33     154     155     158     160     162
             164     166     168     170     172     174     176     178
             180     182     184     186     307     309     311     334
             336     338    2921    2922    2923    2924    2925    2926
            2927    2928    2929    2930    2931    2932    2933    2934
            2935    2936    2937    2938    2939    2940    2941    2942
            2943    2944    2945    2946    2947    2948    2949    2950
            2951    2952    2953    2954    2955    2956    2957    2958
            2959    2960    2961    2962    2963    2964    2965
