$pyNastran: version=msc
$pyNastran: punch=False
$pyNastran: encoding=utf-8
$pyNastran: nnodes=14345
$pyNastran: nelements=14256
$EXECUTIVE CONTROL DECK
SOL 105
CEND
$CASE CONTROL DECK
DISPLACEMENT(PLOT) = ALL
ECHO = NONE
OLOAD(PLOT) = ALL
SPC = 1
SPCFORCES(PLOT) = ALL
SUBCASE 1
    LOAD = 11
SUBCASE 2
    METHOD = 12
BEGIN BULK
$PARAMS
PARAM       POST       1
$NODES
GRID           1              0.      0.    100.
GRID           2              0.27.77778    100.
GRID           3              0.55.55556    100.
GRID           4              0.83.33333    100.
GRID           5              0.111.1111    100.
GRID           6              0.138.8889    100.
GRID           7              0.166.6667    100.
GRID           8              0.194.4444    100.
GRID           9              0.222.2222    100.
GRID          10              0.    250.    100.
GRID          11              0.277.7778    100.
GRID          12              0.305.5556    100.
GRID          13              0.333.3333    100.
GRID          14              0.361.1111    100.
GRID          15              0.388.8889    100.
GRID          16              0.416.6667    100.
GRID          17              0.444.4444    100.
GRID          18              0.472.2222    100.
GRID          19              0.    500.    100.
GRID          20              0.527.7778    100.
$ ... 14325 like lines cut
$ELEMENTS
CQUAD4         1       1       1       2     165     164
CQUAD4         2       1     164     165     328     327
CQUAD4         3       1     327     328     491     490
CQUAD4         4       1     490     491     654     653
CQUAD4         5       1     653     654     817     816
CQUAD4         6       1     816     817     980     979
CQUAD4         7       1     979     980    1143    1142
CQUAD4         8       1    1142    1143    1306    1305
CQUAD4         9       1    1305    1306    1469    1468
CQUAD4        10       1    1468    1469    1632    1631
CQUAD4        11       1    1631    1632    1795    1794
CQUAD4        12       1    1794    1795    1958    1957
CQUAD4        13       1    1957    1958    2121    2120
CQUAD4        14       1    2120    2121    2284    2283
CQUAD4        15       1    2283    2284    2447    2446
CQUAD4        16       1    2446    2447    2610    2609
CQUAD4        17       1    2609    2610    2773    2772
CQUAD4        18       1    2772    2773    2936    2935
CQUAD4        19       1    2935    2936    3099    3098
CQUAD4        20       1    3098    3099    3262    3261
$ ... 14236 like lines cut
$PROPERTIES
PSHELL         1       1      4.       1               1
$MATERIALS
MAT1           1  73100.              .3  2.78-9
$RIGID ELEMENTS
RBE3       14257           14345  123456      1.  123456     163      1.
          123456     326      1.  123456     489      1.  123456     652
              1.  123456     815      1.  123456     978      1.  123456
            1141      1.  123456    1304      1.  123456    1467      1.
          123456    1630      1.  123456    1793      1.  123456    1956
              1.  123456    2119      1.  123456    2282      1.  123456
            2445      1.  123456    2608      1.  123456    2771      1.
          123456    2934      1.  123456    3097      1.  123456    3260
              1.  123456    3423      1.  123456    3586      1.  123456
            3749      1.  123456    3912      1.  123456    4075      1.
          123456    4238      1.  123456    4401      1.  123456    4564
              1.  123456    4727      1.  123456    4890      1.  123456
            5053      1.  123456    5216      1.  123456    5379      1.
          123456    5542      1.  123456    5705      1.  123456    5868
              1.  123456    6031      1.  123456    6194      1.  123456
            6357      1.  123456    6520      1.  123456    6683      1.
          123456    6846      1.  123456    7009      1.  123456    7172
              1.  123456    7335      1.  123456    7498      1.  123456
            7661      1.  123456    7824      1.  123456    7987      1.
          123456    8150      1.  123456    8313      1.  123456    8476
              1.  123456    8639      1.  123456    8802      1.  123456
$ ... 13 like lines cut
$LOADS
FORCE         11   14345              1.      0.      0.      1.
$DYNAMIC
EIGRL         12      0.               1
$SPCs
SPC1           1  123456       1     164     327     490     653     816
             979    1142    1305    1468    1631    1794    1957    2120
            2283    2446    2609    2772    2935    3098    3261    3424
            3587    3750    3913    4076    4239    4402    4565    4728
            4891    5054    5217    5380    5543    5706    5869    6032
            6195    6358    6521    6684    6847    7010    7173    7336
            7499    7662    7825    7988    8151    8314    8477    8640
            8803    8966    9129    9292    9455    9618    9781    9944
           10107   10270   10433   10596   10759   10922   11085   11248
           11411   11574   11737   11900   12063   12226   12389   12552
           12715   12878   13041   13204   13367   13530   13693   13856
           14019   14182
