$pyNastran: version=msc
$pyNastran: punch=False
$pyNastran: encoding=utf-8
$pyNastran: nnodes=9987
$pyNastran: nelements=10248
$EXECUTIVE CONTROL DECK
SOL 105
CEND
$CASE CONTROL DECK
DISPLACEMENT(PLOT) = ALL
ECHO = NONE
OLOAD(PLOT) = ALL
SPC = 1
SUBCASE 1
    LOAD = 11
SUBCASE 2
    METHOD = 12
BEGIN BULK
$PARAMS
PARAM*              POST               1
*
$NODES
GRID*                  1                1.0000000000e+035.0000000000e+02
*       -1.000000000e+02                                                
GRID*                  2                1.0000000000e+035.0000000000e+02
*       -6.666666667e+01                                                
GRID*                  3                1.0000000000e+034.6428571429e+02
*       -6.666666667e+01                                                
GRID*                  4                1.0000000000e+034.6428571429e+02
*       -1.000000000e+02                                                
GRID*                  5                1.0000000000e+034.2857142857e+02
*       -6.666666667e+01                                                
GRID*                  6                1.0000000000e+034.2857142857e+02
*       -1.000000000e+02                                                
GRID*                  7                1.0000000000e+033.9285714286e+02
*       -6.666666667e+01                                                
GRID*                  8                1.0000000000e+033.9285714286e+02
*       -1.000000000e+02                                                
GRID*                  9                1.0000000000e+033.5714285714e+02
*       -6.666666667e+01                                                
GRID*                 10                1.0000000000e+033.5714285714e+02
*       -1.000000000e+02                                                
GRID*                 11                1.0000000000e+033.2142857143e+02
*       -6.666666667e+01                                                
GRID*                 12                1.0000000000e+033.2142857143e+02
*       -1.000000000e+02                                                
GRID*                 13                1.0000000000e+032.8571428571e+02
*       -6.666666667e+01                                                
GRID*                 14                1.0000000000e+032.8571428571e+02
*       -1.000000000e+02                                                
GRID*                 15                1.0000000000e+032.5000000000e+02
*       -6.666666667e+01                                                
GRID*                 16                1.0000000000e+032.5000000000e+02
*       -1.000000000e+02                                                
GRID*                 17                1.0000000000e+032.1428571429e+02
*       -6.666666667e+01                                                
GRID*                 18                1.0000000000e+032.1428571429e+02
*       -1.000000000e+02                                                
GRID*                 19                1.0000000000e+031.7857142857e+02
*       -6.666666667e+01                                                
GRID*                 20                1.0000000000e+031.7857142857e+02
*       -1.000000000e+02                                                
$ ... 19934 like lines cut
$ELEMENTS
CQUAD4*                1               1               1               2
*                      3               4                                
CQUAD4*                2               1               4               3
*                      5               6                                
CQUAD4*                3               1               6               5
*                      7               8                                
CQUAD4*                4               1               8               7
*                      9              10                                
CQUAD4*                5               1              10               9
*                     11              12                                
CQUAD4*                6               1              12              11
*                     13              14                                
CQUAD4*                7               1              14              13
*                     15              16                                
CQUAD4*                8               1              16              15
*                     17              18                                
CQUAD4*                9               1              18              17
*                     19              20                                
CQUAD4*               10               1              20              19
*                     21              22                                
CQUAD4*               11               1              22              21
*                     23              24                                
CQUAD4*               12               1              24              23
*                     25              26                                
CQUAD4*               13               1              26              25
*                     27              28                                
CQUAD4*               14               1              28              27
*                     29              30                                
CQUAD4*               15               1               2              31
*                     32               3                                
CQUAD4*               16               1               3              32
*                     33               5                                
CQUAD4*               17               1               5              33
*                     34               7                                
CQUAD4*               18               1               7              34
*                     35               9                                
CQUAD4*               19               1               9              35
*                     36              11                                
CQUAD4*               20               1              11              36
*                     37              13                                
$ ... 20456 like lines cut
$PROPERTIES
PSHELL*                1               1              4.               1
*                                      1
$MATERIALS
MAT1*                  1          73100.                              .3
*           .00000000278
$RIGID ELEMENTS
RBE3*              10249                            9987          123456
*                     1.          123456            8726              1.
*                 123456            8727              1.          123456
*                   8741              1.          123456            8755
*                     1.          123456            8769              1.
*                 123456            8783              1.          123456
*                   8797              1.          123456            8798
*                     1.          123456            8799              1.
*                 123456            8826              1.          123456
*                   8840              1.          123456            8854
*                     1.          123456            8868              1.
*                 123456            8882              1.          123456
*                   9044              1.          123456            9058
*                     1.          123456            9072              1.
*                 123456            9086              1.          123456
*                   9100              1.          123456            9114
*                     1.          123456            9128              1.
*                 123456            9142              1.          123456
*                   9156              1.          123456            9170
*                     1.          123456            9184              1.
*                 123456            9198              1.          123456
$ ... 31 like lines cut
$LOADS
FORCE*                11            9987                1.0000000000e+00
*       0.0000000000e+000.0000000000e+001.0000000000e+00
$DYNAMIC
EIGRL*                12              0.                               1
*
$SPCs
SPC1           1  123456      29      30      45      60      75      90
             105     106     107     108     109     110     111     112
             113     114     115     116     117     118     119     120
             121     122     123     124     125     126     127     128
             129     130     131     132     133     134     135     136
             137     138     139     140     141     142     143     144
             145     146     147     148     149     150     151     152
             153     154     155     156     157     158     159     160
             161     162     163     164     165     166     167     168
             169     170     171     172     173     174     175     176
             177     178     179     180     181     182     183     184
             185     186     187     188     189     190     191     192
             193     194     195     196     197     198     199     200
             201     202     203     204     205     206     207     208
             209     210     211     212     213     214     215     216
             217     218     219     220     221     222     223     224
             225     226     227     228     229     230     231     232
             233     234     235     236     237     238     239     240
             241     242     243     244     245     246     247     248
             249     250     251     252     253     254     255     256
             257     258     259     260     261     262     263     264
$ ... 5 like lines cut
