$pyNastran: version=msc
$pyNastran: punch=False
$pyNastran: encoding=utf-8
$pyNastran: nnodes=4515
$pyNastran: nelements=4680
$EXECUTIVE CONTROL DECK
SOL 106
CEND
$CASE CONTROL DECK
DISPLACEMENT(PLOT) = ALL
ECHO = NONE
NLPARM = 1
OLOAD(PLOT) = ALL
SPC = 1
SUBCASE 1
    LOAD = 12
BEGIN BULK
$PARAMS
PARAM     LGDISP       1
PARAM       POST       1
$NODES
GRID           1           1000.      0.    100.
GRID           2        944.4445      0.    100.
GRID           3        944.4445     50.    100.
GRID           4           1000.     50.    100.
GRID           5        888.8889      0.    100.
GRID           6        888.8889     50.    100.
GRID           7        833.3334      0.    100.
GRID           8        833.3334     50.    100.
GRID           9        777.7778      0.    100.
GRID          10        777.7778     50.    100.
GRID          11        722.2222      0.    100.
GRID          12        722.2222     50.    100.
GRID          13        666.6667      0.    100.
GRID          14        666.6667     50.    100.
GRID          15        611.1111      0.    100.
GRID          16        611.1111     50.    100.
GRID          17        555.5555      0.    100.
GRID          18        555.5555     50.    100.
GRID          19            500.      0.    100.
GRID          20            500.     50.    100.
$ ... 4495 like lines cut
$ELEMENTS
CQUAD4         1       1       1       2       3       4
CQUAD4         2       1       2       5       6       3
CQUAD4         3       1       5       7       8       6
CQUAD4         4       1       7       9      10       8
CQUAD4         5       1       9      11      12      10
CQUAD4         6       1      11      13      14      12
CQUAD4         7       1      13      15      16      14
CQUAD4         8       1      15      17      18      16
CQUAD4         9       1      17      19      20      18
CQUAD4        10       1      19      21      22      20
CQUAD4        11       1      21      23      24      22
CQUAD4        12       1      23      25      26      24
CQUAD4        13       1      25      27      28      26
CQUAD4        14       1      27      29      30      28
CQUAD4        15       1      29      31      32      30
CQUAD4        16       1      31      33      34      32
CQUAD4        17       1      33      35      36      34
CQUAD4        18       1      35      37      38      36
CQUAD4        19       1       4       3      39      40
CQUAD4        20       1       3       6      41      39
$ ... 4660 like lines cut
$PROPERTIES
PSHELL         1       1      4.       1               1
$MATERIALS
MAT1           1  73100.              .3  2.78-9
$RIGID ELEMENTS
RBE3        4681            4515  123456      1.  123456    3736      1.
          123456    3737      1.  123456    3738      1.  123456    3739
              1.  123456    3740      1.  123456    3741      1.  123456
            3742      1.  123456    3743      1.  123456    3744      1.
          123456    3745      1.  123456    3746      1.  123456    3747
              1.  123456    3748      1.  123456    3749      1.  123456
            3750      1.  123456    3751      1.  123456    3752      1.
          123456    3753      1.  123456    3754      1.  123456    3926
              1.  123456    3927      1.  123456    3928      1.  123456
            3929      1.  123456    3930      1.  123456    3931      1.
          123456    3932      1.  123456    3933      1.  123456    3934
              1.  123456    3935      1.  123456    3936      1.  123456
            3937      1.  123456    3938      1.  123456    3939      1.
          123456    3940      1.  123456    3941      1.  123456    3942
              1.  123456    3943      1.  123456    3944      1.  123456
            3972      1.  123456    3973      1.  123456    3974      1.
          123456    4002      1.  123456    4003      1.  123456    4004
$LOADS
LOAD          12      1.6201.953      11
FORCE         11    4515              1.      0.      0.      1.
$DYNAMIC
NLPARM         1                    ITER      -1             PWU     YES
NLPCI          1    CRIS     .25      4.      0.              12      20
$SPCs
SPC1           1  123456       1       2       5       7       9      11
              13      15      17      19      21      23      25      27
              29      31      33      35      37     210     211     214
             216     218     220     222     224     226     228     230
             232     234     236     238     240     242     244     246
             419     421     423     452     454     456    4005    4006
            4007    4008    4009    4010    4011    4012    4013    4014
            4015    4016    4017    4018    4019    4020    4021    4022
            4023    4024    4025    4026    4027    4028    4029    4030
            4031    4032    4033    4034    4035    4036    4037    4038
            4039    4040    4041    4042    4043    4044    4045    4046
            4047    4048    4049    4050    4051    4052    4053    4054
            4055
