$pyNastran: version=msc
$pyNastran: punch=False
$pyNastran: encoding=utf-8
$pyNastran: nnodes=4515
$pyNastran: nelements=4680
$EXECUTIVE CONTROL DECK
SOL 106
CEND
$CASE CONTROL DECK
DISPLACEMENT(PLOT) = ALL
ECHO = NONE
NLPARM = 1
OLOAD(PLOT) = ALL
SPC = 1
SUBCASE 1
    LOAD = 12
BEGIN BULK
$PARAMS
PARAM     LGDISP       1
PARAM*              POST               1
*
$NODES
GRID*                  1                1.0000000000e+035.0000000000e+02
*       -1.000000000e+02                                                
GRID*                  2                1.0000000000e+035.0000000000e+02
*       -5.000000000e+01                                                
GRID*                  3                1.0000000000e+034.5000000000e+02
*       -5.000000000e+01                                                
GRID*                  4                1.0000000000e+034.5000000000e+02
*       -1.000000000e+02                                                
GRID*                  5                1.0000000000e+034.0000000000e+02
*       -5.000000000e+01                                                
GRID*                  6                1.0000000000e+034.0000000000e+02
*       -1.000000000e+02                                                
GRID*                  7                1.0000000000e+033.5000000000e+02
*       -5.000000000e+01                                                
GRID*                  8                1.0000000000e+033.5000000000e+02
*       -1.000000000e+02                                                
GRID*                  9                1.0000000000e+033.0000000000e+02
*       -5.000000000e+01                                                
GRID*                 10                1.0000000000e+033.0000000000e+02
*       -1.000000000e+02                                                
GRID*                 11                1.0000000000e+032.5000000000e+02
*       -5.000000000e+01                                                
GRID*                 12                1.0000000000e+032.5000000000e+02
*       -1.000000000e+02                                                
GRID*                 13                1.0000000000e+032.0000000000e+02
*       -5.000000000e+01                                                
GRID*                 14                1.0000000000e+032.0000000000e+02
*       -1.000000000e+02                                                
GRID*                 15                1.0000000000e+031.5000000000e+02
*       -5.000000000e+01                                                
GRID*                 16                1.0000000000e+031.5000000000e+02
*       -1.000000000e+02                                                
GRID*                 17                1.0000000000e+031.0000000000e+02
*       -5.000000000e+01                                                
GRID*                 18                1.0000000000e+031.0000000000e+02
*       -1.000000000e+02                                                
GRID*                 19                1.0000000000e+035.0000000000e+01
*       -5.000000000e+01                                                
GRID*                 20                1.0000000000e+035.0000000000e+01
*       -1.000000000e+02                                                
$ ... 8990 like lines cut
$ELEMENTS
CQUAD4*                1               1               1               2
*                      3               4                                
CQUAD4*                2               1               4               3
*                      5               6                                
CQUAD4*                3               1               6               5
*                      7               8                                
CQUAD4*                4               1               8               7
*                      9              10                                
CQUAD4*                5               1              10               9
*                     11              12                                
CQUAD4*                6               1              12              11
*                     13              14                                
CQUAD4*                7               1              14              13
*                     15              16                                
CQUAD4*                8               1              16              15
*                     17              18                                
CQUAD4*                9               1              18              17
*                     19              20                                
CQUAD4*               10               1              20              19
*                     21              22                                
CQUAD4*               11               1               2              23
*                     24               3                                
CQUAD4*               12               1               3              24
*                     25               5                                
CQUAD4*               13               1               5              25
*                     26               7                                
CQUAD4*               14               1               7              26
*                     27               9                                
CQUAD4*               15               1               9              27
*                     28              11                                
CQUAD4*               16               1              11              28
*                     29              13                                
CQUAD4*               17               1              13              29
*                     30              15                                
CQUAD4*               18               1              15              30
*                     31              17                                
CQUAD4*               19               1              17              31
*                     32              19                                
CQUAD4*               20               1              19              32
*                     33              21                                
$ ... 9320 like lines cut
$PROPERTIES
PSHELL*                1               1              4.               1
*                                      1
$MATERIALS
MAT1*                  1          73100.                              .3
*           .00000000278
$RIGID ELEMENTS
RBE3*               4681                            4515          123456
*                     1.          123456            3964              1.
*                 123456            3965              1.          123456
*                   3975              1.          123456            3985
*                     1.          123456            3995              1.
*                 123456            3996              1.          123456
*                   3997              1.          123456            4016
*                     1.          123456            4026              1.
*                 123456            4036              1.          123456
*                   4106              1.          123456            4116
*                     1.          123456            4126              1.
*                 123456            4136              1.          123456
*                   4146              1.          123456            4156
*                     1.          123456            4166              1.
*                 123456            4176              1.          123456
*                   4186              1.          123456            4196
*                     1.          123456            4206              1.
*                 123456            4216              1.          123456
*                   4226              1.          123456            4236
*                     1.          123456            4246              1.
*                 123456            4256              1.          123456
$ ... 13 like lines cut
$LOADS
LOAD*                 12              1.           6202.              11
*
FORCE*                11            4515                1.0000000000e+00
*       0.0000000000e+000.0000000000e+001.0000000000e+00
$DYNAMIC
NLPARM*                1                                            ITER
*                     -1                            PWUV             YES
NLPCI*                 1            CRIS             .25              4.
*                     0.                              12              20
$SPCs
SPC1           1  123456      21      22      33      44      55      56
              57      58      59      60      61      62      63      64
              65      66      67      68      69      70      71      72
              73      74      75      76      77      78      79      80
              81      82      83      84      85      86      87      88
              89      90      91      92      93      94      95      96
              97      98      99     100     101     102     103     104
             105     106     107     108     109     110     111     112
             113     114     115     116     117     118     119     120
             121     122     123     124     125     126     127     128
             129     130     131     132     133     134     135     136
             137     138     139     140     141     142     143     144
             145
