$pyNastran: version=msc
$pyNastran: punch=False
$pyNastran: encoding=utf-8
$pyNastran: nnodes=2601
$pyNastran: nelements=2500
$EXECUTIVE CONTROL DECK
SOL 106
CEND
$CASE CONTROL DECK
DISPLACEMENT(PLOT) = ALL
ECHO = NONE
NLPARM = 1
OLOAD(PLOT) = ALL
SPC = 4
SPCFORCES(PLOT) = ALL
SUBCASE 1
    LOAD = 8
SUBCASE 2
    LOAD = 7
SUBCASE 3
    LOAD = 9
SUBCASE 4
    LOAD = 7
SUBCASE 5
    LOAD = 10
    NLPARM = 2
SUBCASE 6
    LOAD = 9
    NLPARM = 2
BEGIN BULK
$PARAMS
PARAM     LGDISP       1
PARAM       POST       1
$NODES
GRID           1              0.      0.      0.
GRID           2              0.      5.      0.
GRID           3              0.     10.      0.
GRID           4              0.     15.      0.
GRID           5              0.     20.      0.
GRID           6              0.     25.      0.
GRID           7              0.     30.      0.
GRID           8              0.     35.      0.
GRID           9              0.     40.      0.
GRID          10              0.     45.      0.
GRID          11              0.     50.      0.
GRID          12              0.     55.      0.
GRID          13              0.     60.      0.
GRID          14              0.     65.      0.
GRID          15              0.     70.      0.
GRID          16              0.     75.      0.
GRID          17              0.     80.      0.
GRID          18              0.     85.      0.
GRID          19              0.     90.      0.
GRID          20              0.     95.      0.
$ ... 2581 like lines cut
$ELEMENTS
CQUAD4         1       1       1      52      53       2
CQUAD4         2       1       2      53      54       3
CQUAD4         3       1       3      54      55       4
CQUAD4         4       1       4      55      56       5
CQUAD4         5       1       5      56      57       6
CQUAD4         6       1       6      57      58       7
CQUAD4         7       1       7      58      59       8
CQUAD4         8       1       8      59      60       9
CQUAD4         9       1       9      60      61      10
CQUAD4        10       1      10      61      62      11
CQUAD4        11       1      11      62      63      12
CQUAD4        12       1      12      63      64      13
CQUAD4        13       1      13      64      65      14
CQUAD4        14       1      14      65      66      15
CQUAD4        15       1      15      66      67      16
CQUAD4        16       1      16      67      68      17
CQUAD4        17       1      17      68      69      18
CQUAD4        18       1      18      69      70      19
CQUAD4        19       1      19      70      71      20
CQUAD4        20       1      20      71      72      21
$ ... 2480 like lines cut
$PROPERTIES
PSHELL         1       1      6.       1               1
$MATERIALS
MAT1           1   3105.              .3
$LOADS
LOAD           7      1.13598.32       5
LOAD           8      1.13598.32       590.65544       6
LOAD           9      1.13598.32       5-226.639       6
LOAD          10      1.      0.       5
FORCE          5    2552             .02     -1.      0.      0.
FORCE          5    2553             .02     -1.      0.      0.
FORCE          5    2554             .02     -1.      0.      0.
FORCE          5    2555             .02     -1.      0.      0.
FORCE          5    2556             .02     -1.      0.      0.
FORCE          5    2557             .02     -1.      0.      0.
FORCE          5    2558             .02     -1.      0.      0.
FORCE          5    2559             .02     -1.      0.      0.
FORCE          5    2560             .02     -1.      0.      0.
FORCE          5    2561             .02     -1.      0.      0.
FORCE          5    2562             .02     -1.      0.      0.
FORCE          5    2563             .02     -1.      0.      0.
FORCE          5    2564             .02     -1.      0.      0.
FORCE          5    2565             .02     -1.      0.      0.
FORCE          5    2566             .02     -1.      0.      0.
FORCE          5    2567             .02     -1.      0.      0.
FORCE          5    2568             .02     -1.      0.      0.
FORCE          5    2569             .02     -1.      0.      0.
FORCE          5    2570             .02     -1.      0.      0.
FORCE          5    2571             .02     -1.      0.      0.
$ ... 32 like lines cut
$DYNAMIC
NLPARM         1     100            ITER       1             PUV     YES
            .001    .001
              10
NLPARM         2     100            ITER       1             PUV     YES
            .001    .001
              10
NLPCI          1    CRIS     .01  1.0001      0.               5    2000
$SPCs
SPCADD         4       1       2       3
SPC1           1     123       1       2       3       4       5       6
               7       8       9      10      11      12      13      14
              15      16      17      18      19      20      21      22
              23      24      25      26      27      28      29      30
              31      32      33      34      35      36      37      38
              39      40      41      42      43      44      45      46
              47      48      49      50      51
SPC1           2      23    2551    2552    2553    2554    2555    2556
            2557    2558    2559    2560    2561    2562    2563    2564
            2565    2566    2567    2568    2569    2570    2571    2572
            2573    2574    2575    2576    2577    2578    2579    2580
            2581    2582    2583    2584    2585    2586    2587    2588
            2589    2590    2591    2592    2593    2594    2595    2596
            2597    2598    2599    2600    2601
SPC1           3       3      52     102     103     153     154     204
             205     255     256     306     307     357     358     408
             409     459     460     510     511     561     562     612
             613     663     664     714     715     765     766     816
             817     867     868     918     919     969     970    1020
            1021    1071    1072    1122    1123    1173    1174    1224
            1225    1275    1276    1326    1327    1377    1378    1428
            1429    1479    1480    1530    1531    1581    1582    1632
            1633    1683    1684    1734    1735    1785    1786    1836
            1837    1887    1888    1938    1939    1989    1990    2040
            2041    2091    2092    2142    2143    2193    2194    2244
            2245    2295    2296    2346    2347    2397    2398    2448
            2449    2499    2500    2550
