$pyNastran: version=msc
$pyNastran: punch=False
$pyNastran: encoding=utf-8
$pyNastran: nnodes=3389
$pyNastran: nelements=3344
$EXECUTIVE CONTROL DECK
SOL 106
CEND
$CASE CONTROL DECK
DISPLACEMENT(PLOT) = ALL
ECHO = NONE
NLPARM = 1
OLOAD(PLOT) = ALL
SPC = 1
SUBCASE 1
    LOAD = 12
BEGIN BULK
$PARAMS
PARAM     LGDISP       1
PARAM       POST       1
$NODES
GRID           1              0.      0.    100.
GRID           2              0.59.21053    100.
GRID           3              0.118.4211    100.
GRID           4              0.177.6316    100.
GRID           5              0.236.8421    100.
GRID           6              0.296.0526    100.
GRID           7              0.355.2632    100.
GRID           8              0.414.4737    100.
GRID           9              0.473.6842    100.
GRID          10              0.532.8947    100.
GRID          11              0.592.1053    100.
GRID          12              0.651.3158    100.
GRID          13              0.710.5263    100.
GRID          14              0.769.7368    100.
GRID          15              0.828.9474    100.
GRID          16              0.888.1579    100.
GRID          17              0.947.3684    100.
GRID          18              0.1006.579    100.
GRID          19              0.1065.789    100.
GRID          20              0.   1125.    100.
$ ... 3369 like lines cut
$ELEMENTS
CQUAD4         1       1       1       2      79      78
CQUAD4         2       1      78      79     156     155
CQUAD4         3       1     155     156     233     232
CQUAD4         4       1     232     233     310     309
CQUAD4         5       1     309     310     387     386
CQUAD4         6       1     386     387     464     463
CQUAD4         7       1     463     464     541     540
CQUAD4         8       1     540     541     618     617
CQUAD4         9       1     617     618     695     694
CQUAD4        10       1     694     695     772     771
CQUAD4        11       1     771     772     849     848
CQUAD4        12       1     848     849     926     925
CQUAD4        13       1     925     926    1003    1002
CQUAD4        14       1    1002    1003    1080    1079
CQUAD4        15       1    1079    1080    1157    1156
CQUAD4        16       1    1156    1157    1234    1233
CQUAD4        17       1    1233    1234    1311    1310
CQUAD4        18       1    1310    1311    1388    1387
CQUAD4        19       1    1387    1388    1465    1464
CQUAD4        20       1    1464    1465    1542    1541
$ ... 3324 like lines cut
$PROPERTIES
PSHELL         1       1      4.       1               1
$MATERIALS
MAT1           1  73100.              .3  2.78-9
$RIGID ELEMENTS
RBE2        3345    3389  123456      77     154     231     308     385
             462     539     616     693     770     847     924    1001
            1078    1155    1232    1309    1386    1463    1540    1617
            1694    1771    1848    1925    2002    2079    2156    2233
            2310    2387    2464    2541    2618    2695    2772    2849
            2926    3003    3080    3157    3234    3311    3388
$LOADS
LOAD          12      1.   1654.      11
FORCE         11    3389              1.      0.      0.      1.
$DYNAMIC
NLPARM         1      10            ITER       1                     YES
NLPCI          1    CRIS     .25     10.      0.              12      20
$SPCs
SPC1           1  123456       1      78     155     232     309     386
             463     540     617     694     771     848     925    1002
            1079    1156    1233    1310    1387    1464    1541    1618
            1695    1772    1849    1926    2003    2080    2157    2234
            2311    2388    2465    2542    2619    2696    2773    2850
            2927    3004    3081    3158    3235    3312
