$pyNastran: version=msc
$pyNastran: punch=False
$pyNastran: encoding=utf-8
$pyNastran: nnodes=1761
$pyNastran: nelements=1728
$EXECUTIVE CONTROL DECK
SOL 106
CEND
$CASE CONTROL DECK
DISPLACEMENT(PLOT) = ALL
ECHO = NONE
NLPARM = 1
OLOAD(PLOT) = ALL
SPC = 1
SUBCASE 1
    LOAD = 12
BEGIN BULK
$PARAMS
PARAM     LGDISP       1
PARAM       POST       1
$NODES
GRID           1              0.      0.    100.
GRID           2              0.83.33333    100.
GRID           3              0.166.6667    100.
GRID           4              0.    250.    100.
GRID           5              0.333.3333    100.
GRID           6              0.416.6667    100.
GRID           7              0.    500.    100.
GRID           8              0.583.3333    100.
GRID           9              0.666.6667    100.
GRID          10              0.    750.    100.
GRID          11              0.833.3333    100.
GRID          12              0.916.6667    100.
GRID          13              0.   1000.    100.
GRID          14              0.1083.333    100.
GRID          15              0.1166.667    100.
GRID          16              0.   1250.    100.
GRID          17              0.1333.333    100.
GRID          18              0.1416.667    100.
GRID          19              0.   1500.    100.
GRID          20              0.1583.333    100.
$ ... 1741 like lines cut
$ELEMENTS
CQUAD4         1       1       1       2      57      56
CQUAD4         2       1      56      57     112     111
CQUAD4         3       1     111     112     167     166
CQUAD4         4       1     166     167     222     221
CQUAD4         5       1     221     222     277     276
CQUAD4         6       1     276     277     332     331
CQUAD4         7       1     331     332     387     386
CQUAD4         8       1     386     387     442     441
CQUAD4         9       1     441     442     497     496
CQUAD4        10       1     496     497     552     551
CQUAD4        11       1     551     552     607     606
CQUAD4        12       1     606     607     662     661
CQUAD4        13       1     661     662     717     716
CQUAD4        14       1     716     717     772     771
CQUAD4        15       1     771     772     827     826
CQUAD4        16       1     826     827     882     881
CQUAD4        17       1     881     882     937     936
CQUAD4        18       1     936     937     992     991
CQUAD4        19       1     991     992    1047    1046
CQUAD4        20       1    1046    1047    1102    1101
$ ... 1708 like lines cut
$PROPERTIES
PSHELL         1       1      4.       1               1
$MATERIALS
MAT1           1  73100.              .3  2.78-9
$RIGID ELEMENTS
RBE2        1729    1761  123456      55     110     165     220     275
             330     385     440     495     550     605     660     715
             770     825     880     935     990    1045    1100    1155
            1210    1265    1320    1375    1430    1485    1540    1595
            1650    1705    1760
$LOADS
LOAD          12      1.   1657.      11
FORCE         11    1761              1.      0.      0.      1.
$DYNAMIC
NLPARM         1      10            ITER       1                     YES
NLPCI          1    CRIS     .01      4.      0.              12      20
$SPCs
SPC1           1  123456       1      56     111     166     221     276
             331     386     441     496     551     606     661     716
             771     826     881     936     991    1046    1101    1156
            1211    1266    1321    1376    1431    1486    1541    1596
            1651    1706
