$pyNastran: version=msc
$pyNastran: punch=False
$pyNastran: encoding=utf-8
$pyNastran: nnodes=3389
$pyNastran: nelements=3344
$EXECUTIVE CONTROL DECK
SOL 106
include '..\..\resources\kllrh_eigenvalues_nobuckle.dmap'
CEND
$CASE CONTROL DECK
DISPLACEMENT(PLOT) = ALL
ECHO = NONE
METHOD = 14
NLPARM = 2
OLOAD(PLOT) = ALL
SPC = 1
SUBCASE 1
    LOAD = 12
SUBCASE 2
    LOAD = 13
BEGIN BULK
$PARAMS
PARAM*            BMODES              10
*
PARAM     BUCKLE       2
PARAM     LGDISP       1
PARAM*          LOWEREIG -1.591549430919
*
PARAM*              POST               1
*
PARAM*          UPPEREIG1.59154943091895
*
$NODES
GRID*                  1                1.0000000000e+034.5000000000e+03
*       -1.000000000e+02                                                
GRID*                  2                1.0000000000e+034.5000000000e+03
*       -5.000000000e+01                                                
GRID*                  3                1.0000000000e+034.4407894737e+03
*       -5.000000000e+01                                                
GRID*                  4                1.0000000000e+034.4407894737e+03
*       -1.000000000e+02                                                
GRID*                  5                1.0000000000e+034.3815789474e+03
*       -5.000000000e+01                                                
GRID*                  6                1.0000000000e+034.3815789474e+03
*       -1.000000000e+02                                                
GRID*                  7                1.0000000000e+034.3223684211e+03
*       -5.000000000e+01                                                
GRID*                  8                1.0000000000e+034.3223684211e+03
*       -1.000000000e+02                                                
GRID*                  9                1.0000000000e+034.2631578947e+03
*       -5.000000000e+01                                                
GRID*                 10                1.0000000000e+034.2631578947e+03
*       -1.000000000e+02                                                
GRID*                 11                1.0000000000e+034.2039473684e+03
*       -5.000000000e+01                                                
GRID*                 12                1.0000000000e+034.2039473684e+03
*       -1.000000000e+02                                                
GRID*                 13                1.0000000000e+034.1447368421e+03
*       -5.000000000e+01                                                
GRID*                 14                1.0000000000e+034.1447368421e+03
*       -1.000000000e+02                                                
GRID*                 15                1.0000000000e+034.0855263158e+03
*       -5.000000000e+01                                                
GRID*                 16                1.0000000000e+034.0855263158e+03
*       -1.000000000e+02                                                
GRID*                 17                1.0000000000e+034.0263157895e+03
*       -5.000000000e+01                                                
GRID*                 18                1.0000000000e+034.0263157895e+03
*       -1.000000000e+02                                                
GRID*                 19                1.0000000000e+033.9671052632e+03
*       -5.000000000e+01                                                
GRID*                 20                1.0000000000e+033.9671052632e+03
*       -1.000000000e+02                                                
$ ... 6738 like lines cut
$ELEMENTS
CQUAD4*                1               1               1               2
*                      3               4                                
CQUAD4*                2               1               4               3
*                      5               6                                
CQUAD4*                3               1               6               5
*                      7               8                                
CQUAD4*                4               1               8               7
*                      9              10                                
CQUAD4*                5               1              10               9
*                     11              12                                
CQUAD4*                6               1              12              11
*                     13              14                                
CQUAD4*                7               1              14              13
*                     15              16                                
CQUAD4*                8               1              16              15
*                     17              18                                
CQUAD4*                9               1              18              17
*                     19              20                                
CQUAD4*               10               1              20              19
*                     21              22                                
CQUAD4*               11               1              22              21
*                     23              24                                
CQUAD4*               12               1              24              23
*                     25              26                                
CQUAD4*               13               1              26              25
*                     27              28                                
CQUAD4*               14               1              28              27
*                     29              30                                
CQUAD4*               15               1              30              29
*                     31              32                                
CQUAD4*               16               1              32              31
*                     33              34                                
CQUAD4*               17               1              34              33
*                     35              36                                
CQUAD4*               18               1              36              35
*                     37              38                                
CQUAD4*               19               1              38              37
*                     39              40                                
CQUAD4*               20               1              40              39
*                     41              42                                
$ ... 6648 like lines cut
$PROPERTIES
PSHELL*                1               1              4.               1
*                                      1
$MATERIALS
MAT1*                  1          73100.                              .3
*           .00000000278
$RIGID ELEMENTS
RBE2        3345    3389  123456       1       2     155     232     309
             538     539     616     693     770     847     924    1001
            1078    1155    1232    1309    1386    1463    1540    1617
            1694    1771    1772    1773    1926    2003    2080    2157
            2234    2311    2388    2465    2542    2619    2696    2773
            2850    2927    3004    3081    3234    3311    3388
$LOADS
LOAD*                 12              1.           3308.              11
*
LOAD*                 13              1.              0.              11
*
FORCE*                11            3389                1.0000000000e+00
*       0.0000000000e+000.0000000000e+001.0000000000e+00
$DYNAMIC
EIGRL*                14                                              10
*
NLPARM*                1              10                            ITER
*                     -1                              PU             YES
NLPARM*                2             100                            ITER
*                     -1                             PUV             YES
*                   .001            .001
*
*                     10
*
NLPCI*                 1            CRIS             .25              4.
*                     0.                              12              20
$SPCs
SPC1           1  123456     153     154     231     308     385     386
             387     540     617     694     771     848     925    1002
            1079    1156    1233    1310    1387    1464    1541    1618
            1695    1924    1925    2002    2079    2156    2233    2310
            2387    2464    2541    2618    2695    2772    2849    2926
            3003    3080    3157    3158    3235    3312
