$pyNastran: version=msc
$pyNastran: punch=False
$pyNastran: encoding=utf-8
$pyNastran: nnodes=3389
$pyNastran: nelements=3344
$EXECUTIVE CONTROL DECK
SOL 106
include '..\..\resources\kllrh_eigenvalues_nobuckle.dmap'
CEND
$CASE CONTROL DECK
DISPLACEMENT(PLOT) = ALL
ECHO = NONE
METHOD = 14
NLPARM = 1
OLOAD(PLOT) = ALL
SPC = 1
SUBCASE 1
    LOAD = 12
SUBCASE 2
    LOAD = 13
    NLPARM = 2
BEGIN BULK
$PARAMS
PARAM     BMODES      10
PARAM     BUCKLE       2
PARAM     LGDISP       1
PARAM   LOWEREIG-1.59155
PARAM       POST       1
PARAM   UPPEREIG1.591549
$NODES
GRID           1           1000.      0.    100.
GRID           2        944.4445      0.    100.
GRID           3        944.444559.21045    100.
GRID           4           1000.59.21045    100.
GRID           5        888.8889      0.    100.
GRID           6        888.888959.21045    100.
GRID           7        833.3334      0.    100.
GRID           8        833.333459.21045    100.
GRID           9        777.7778      0.    100.
GRID          10        777.777859.21045    100.
GRID          11        722.2222      0.    100.
GRID          12        722.222259.21045    100.
GRID          13        666.6667      0.    100.
GRID          14        666.666759.21045    100.
GRID          15        611.1111      0.    100.
GRID          16        611.111159.21045    100.
GRID          17        555.5555      0.    100.
GRID          18        555.555559.21045    100.
GRID          19            500.      0.    100.
GRID          20            500.59.21045    100.
$ ... 3369 like lines cut
$ELEMENTS
CQUAD4         1       1       1       2       3       4
CQUAD4         2       1       2       5       6       3
CQUAD4         3       1       5       7       8       6
CQUAD4         4       1       7       9      10       8
CQUAD4         5       1       9      11      12      10
CQUAD4         6       1      11      13      14      12
CQUAD4         7       1      13      15      16      14
CQUAD4         8       1      15      17      18      16
CQUAD4         9       1      17      19      20      18
CQUAD4        10       1      19      21      22      20
CQUAD4        11       1      21      23      24      22
CQUAD4        12       1      23      25      26      24
CQUAD4        13       1      25      27      28      26
CQUAD4        14       1      27      29      30      28
CQUAD4        15       1      29      31      32      30
CQUAD4        16       1      31      33      34      32
CQUAD4        17       1      33      35      36      34
CQUAD4        18       1      35      37      38      36
CQUAD4        19       1       4       3      39      40
CQUAD4        20       1       3       6      41      39
$ ... 3324 like lines cut
$PROPERTIES
PSHELL         1       1      4.       1               1
$MATERIALS
MAT1           1  73100.              .3  2.78-9
$RIGID ELEMENTS
RBE2        3345    3389  123456    1445    1446    1447    1448    1449
            1450    1451    1452    1453    1454    1455    1456    1457
            1458    1459    1460    1461    1462    1463    2908    2909
            2910    2911    2912    2913    2914    2915    2916    2917
            2918    2919    2920    2921    2922    2923    2924    2925
            2926    3155    3156    3157    3386    3387    3388
$LOADS
LOAD          12      1.   3308.      11
LOAD          13      1.      0.      11
FORCE         11    3389              1.      0.      0.      1.
$DYNAMIC
EIGRL         14                      10
NLPARM         1      10            ITER      -1              PU     YES
NLPARM         2     100            ITER      -1             PUV     YES
            .001    .001
              10
NLPCI          1    CRIS     .25      4.      0.              12      20
NLPCI          2    CRIS     .01  1.0001      0.               5     100
$SPCs
SPC1           1  123456       1       2       5       7       9      11
              13      15      17      19      21      23      25      27
              29      31      33      35      37    1464    1465    1468
            1470    1472    1474    1476    1478    1480    1482    1484
            1486    1488    1490    1492    1494    1496    1498    1500
            2927    2929    2931    3158    3160    3162
