$pyNastran: version=msc
$pyNastran: punch=False
$pyNastran: encoding=utf-8
$pyNastran: nnodes=1761
$pyNastran: nelements=1728
$EXECUTIVE CONTROL DECK
SOL 106
CEND
$CASE CONTROL DECK
DISPLACEMENT(PLOT) = ALL
ECHO = NONE
NLPARM = 1
OLOAD(PLOT) = ALL
SPC = 1
SUBCASE 1
    LOAD = 12
BEGIN BULK
$PARAMS
PARAM     LGDISP       1
PARAM       POST       1
$NODES
GRID           1           1000.      0.    100.
GRID           2        916.6666      0.    100.
GRID           3        916.666683.33325    100.
GRID           4           1000.83.33325    100.
GRID           5        833.3334      0.    100.
GRID           6        833.333483.33325    100.
GRID           7            750.      0.    100.
GRID           8            750.83.33325    100.
GRID           9        666.6667      0.    100.
GRID          10        666.666783.33325    100.
GRID          11        583.3333      0.    100.
GRID          12        583.333383.33325    100.
GRID          13            500.      0.    100.
GRID          14            500.83.33325    100.
GRID          15        416.6667      0.    100.
GRID          16        416.666783.33325    100.
GRID          17        333.3333      0.    100.
GRID          18        333.333383.33325    100.
GRID          19            250.      0.    100.
GRID          20            250.83.33325    100.
$ ... 1741 like lines cut
$ELEMENTS
CQUAD4         1       1       1       2       3       4
CQUAD4         2       1       2       5       6       3
CQUAD4         3       1       5       7       8       6
CQUAD4         4       1       7       9      10       8
CQUAD4         5       1       9      11      12      10
CQUAD4         6       1      11      13      14      12
CQUAD4         7       1      13      15      16      14
CQUAD4         8       1      15      17      18      16
CQUAD4         9       1      17      19      20      18
CQUAD4        10       1      19      21      22      20
CQUAD4        11       1      21      23      24      22
CQUAD4        12       1      23      25      26      24
CQUAD4        13       1       4       3      27      28
CQUAD4        14       1       3       6      29      27
CQUAD4        15       1       6       8      30      29
CQUAD4        16       1       8      10      31      30
CQUAD4        17       1      10      12      32      31
CQUAD4        18       1      12      14      33      32
CQUAD4        19       1      14      16      34      33
CQUAD4        20       1      16      18      35      34
$ ... 1708 like lines cut
$PROPERTIES
PSHELL         1       1      4.       1               1
$MATERIALS
MAT1           1  73100.              .3  2.78-9
$RIGID ELEMENTS
RBE2        1729    1761  123456     703     704     705     706     707
             708     709     710     711     712     713     714     715
            1418    1419    1420    1421    1422    1423    1424    1425
            1426    1427    1428    1429    1430    1593    1594    1595
            1758    1759    1760
$LOADS
LOAD          12      1.   3314.      11
FORCE         11    1761              1.      0.      0.      1.
$DYNAMIC
NLPARM         1                    ITER       1                     YES
                            .001
NLPCI          1    CRIS     .25      4.      0.              12      20
$SPCs
SPC1           1  123456       1       2       5       7       9      11
              13      15      17      19      21      23      25     716
             717     720     722     724     726     728     730     732
             734     736     738     740    1431    1433    1435    1596
            1598    1600
