$pyNastran: version=msc
$pyNastran: punch=False
$pyNastran: encoding=utf-8
$pyNastran: nnodes=7155
$pyNastran: nelements=7368
$EXECUTIVE CONTROL DECK
SOL 106
include '..\..\resources\kllrh_lowest_eigenvalues.dmap'
CEND
$CASE CONTROL DECK
DISPLACEMENT(PLOT) = ALL
ECHO = NONE
METHOD = 12
NLPARM = 1
OLOAD(PLOT) = ALL
SPC = 1
SUBCASE 1
    LOAD = 21
SUBCASE 2
    LOAD = 22
SUBCASE 3
    LOAD = 23
SUBCASE 4
    LOAD = 24
SUBCASE 5
    LOAD = 25
SUBCASE 6
    LOAD = 26
SUBCASE 7
    LOAD = 27
SUBCASE 8
    LOAD = 28
SUBCASE 9
    LOAD = 29
SUBCASE 10
    LOAD = 30
BEGIN BULK
$PARAMS
PARAM     BMODES       1
PARAM     BUCKLE       2
PARAM     LGDISP       1
PARAM       POST       1
$NODES
GRID           1           1000.      0.    100.
GRID           2        954.5455      0.    100.
GRID           3        954.545541.66667    100.
GRID           4           1000.41.66667    100.
GRID           5        909.0909      0.    100.
GRID           6        909.090941.66667    100.
GRID           7        863.6364      0.    100.
GRID           8        863.636441.66667    100.
GRID           9        818.1818      0.    100.
GRID          10        818.181841.66667    100.
GRID          11        772.7273      0.    100.
GRID          12        772.727341.66667    100.
GRID          13        727.2727      0.    100.
GRID          14        727.272741.66667    100.
GRID          15        681.8182      0.    100.
GRID          16        681.818241.66667    100.
GRID          17        636.3636      0.    100.
GRID          18        636.363641.66667    100.
GRID          19        590.9091      0.    100.
GRID          20        590.909141.66667    100.
$ ... 7135 like lines cut
$ELEMENTS
CQUAD4         1       1       1       2       3       4
CQUAD4         2       1       2       5       6       3
CQUAD4         3       1       5       7       8       6
CQUAD4         4       1       7       9      10       8
CQUAD4         5       1       9      11      12      10
CQUAD4         6       1      11      13      14      12
CQUAD4         7       1      13      15      16      14
CQUAD4         8       1      15      17      18      16
CQUAD4         9       1      17      19      20      18
CQUAD4        10       1      19      21      22      20
CQUAD4        11       1      21      23      24      22
CQUAD4        12       1      23      25      26      24
CQUAD4        13       1      25      27      28      26
CQUAD4        14       1      27      29      30      28
CQUAD4        15       1      29      31      32      30
CQUAD4        16       1      31      33      34      32
CQUAD4        17       1      33      35      36      34
CQUAD4        18       1      35      37      38      36
CQUAD4        19       1      37      39      40      38
CQUAD4        20       1      39      41      42      40
$ ... 7348 like lines cut
$PROPERTIES
PSHELL         1       1      4.       1               1
$MATERIALS
MAT1           1  73100.              .3  2.78-9
$RIGID ELEMENTS
RBE3        7369            7155  123456      1.  123456    5686      1.
          123456    5687      1.  123456    5688      1.  123456    5689
              1.  123456    5690      1.  123456    5691      1.  123456
            5692      1.  123456    5693      1.  123456    5694      1.
          123456    5695      1.  123456    5696      1.  123456    5697
              1.  123456    5698      1.  123456    5699      1.  123456
            5700      1.  123456    5701      1.  123456    5702      1.
          123456    5703      1.  123456    5704      1.  123456    5705
              1.  123456    5706      1.  123456    5707      1.  123456
            5708      1.  123456    5962      1.  123456    5963      1.
          123456    5964      1.  123456    5965      1.  123456    5966
              1.  123456    5967      1.  123456    5968      1.  123456
            5969      1.  123456    5970      1.  123456    5971      1.
          123456    5972      1.  123456    5973      1.  123456    5974
              1.  123456    5975      1.  123456    5976      1.  123456
            5977      1.  123456    5978      1.  123456    5979      1.
          123456    5980      1.  123456    5981      1.  123456    5982
              1.  123456    5983      1.  123456    5984      1.  123456
            6040      1.  123456    6041      1.  123456    6042      1.
          123456    6043      1.  123456    6044      1.  123456    6100
              1.  123456    6101      1.  123456    6102      1.  123456
            6103      1.  123456    6104
$LOADS
LOAD          21      1.   618.8      11
LOAD          22      1.  1237.6      11
LOAD          23      1.  1856.4      11
LOAD          24      1.  2475.2      11
LOAD          25      1.   3094.      11
LOAD          26      1.  3712.8      11
LOAD          27      1.  4331.6      11
LOAD          28      1.  4950.4      11
LOAD          29      1.  5569.2      11
LOAD          30      1.   6188.      11
FORCE         11    7155              1.      0.      0.      1.
$DYNAMIC
EIGRL         12                       1
NLPARM         1     100            ITER       1                     YES
                    .001.0000001
NLPCI          1    CRIS     .01     1.1      0.               5     100
$SPCs
SPC1           1  123456       1       2       5       7       9      11
              13      15      17      19      21      23      25      27
              29      31      33      35      37      39      41      43
              45     300     301     304     306     308     310     312
             314     316     318     320     322     324     326     328
             330     332     334     336     338     340     342     344
             599     601     603     605     607     664     666     668
             670     672    6105    6106    6107    6108    6109    6110
            6111    6112    6113    6114    6115    6116    6117    6118
            6119    6120    6121    6122    6123    6124    6125    6126
            6127    6128    6129    6130    6131    6132    6133    6134
            6135    6136    6137    6138    6139    6140    6141    6142
            6143    6144    6145    6146    6147    6148    6149    6150
            6151    6152    6153    6154    6155    6156    6157    6158
            6159    6160    6161    6162    6163    6164    6165    6166
            6167    6168    6169    6170    6171    6172    6173    6174
            6175    6176    6177    6178    6179    6180    6181    6182
            6183    6184    6185    6186    6187    6188    6189    6190
            6191    6192    6193    6194    6195    6196    6197    6198
            6199    6200    6201    6202    6203    6204    6205    6206
            6207    6208    6209
