$pyNastran: version=msc
$pyNastran: punch=False
$pyNastran: encoding=utf-8
$pyNastran: nnodes=1443
$pyNastran: nelements=1536
$EXECUTIVE CONTROL DECK
SOL 105
CEND
$CASE CONTROL DECK
DISPLACEMENT(PLOT) = ALL
ECHO = NONE
OLOAD(PLOT) = ALL
SPC = 1
SUBCASE 1
    LOAD = 11
SUBCASE 2
    METHOD = 12
BEGIN BULK
$PARAMS
PARAM       POST       1
$NODES
GRID           1         1.11-14-1.526-599.99998
GRID           2              0.      0.  -2.5-5
GRID           3              0.    125. -1.25-5
GRID           4         1.11-14    125.99.99998
GRID           5        -1.11-141.5259-5   -100.
GRID           6        -1.11-14    125.   -100.
GRID           7              0.    250.      0.
GRID           8         1.11-14    250.    100.
GRID           9        -1.11-14    250.   -100.
GRID          10              0.    375..0000125
GRID          11         1.11-14    375.    100.
GRID          12        -1.11-14    375.   -100.
GRID          13              0.    500. .000025
GRID          14         1.11-14    500.    100.
GRID          15        -1.11-14    500.   -100.
GRID          16           1000.1.5259-5   -100.
GRID          17           1000.      0.  -2.5-5
GRID          18           1000.    125. -1.25-5
GRID          19           1000.    125.   -100.
GRID          20           1000.-1.526-599.99998
$ ... 1423 like lines cut
$ELEMENTS
CQUAD4         1       1       1       2       3       4
CQUAD4         2       1       2       5       6       3
CQUAD4         3       1       4       3       7       8
CQUAD4         4       1       3       6       9       7
CQUAD4         5       1       8       7      10      11
CQUAD4         6       1       7       9      12      10
CQUAD4         7       1      11      10      13      14
CQUAD4         8       1      10      12      15      13
CQUAD4         9       1      16      17      18      19
CQUAD4        10       1      17      20      21      18
CQUAD4        11       1      19      18      22      23
CQUAD4        12       1      18      21      24      22
CQUAD4        13       1      23      22      25      26
CQUAD4        14       1      22      24      27      25
CQUAD4        15       1      26      25      28      29
CQUAD4        16       1      25      27      30      28
CQUAD4        17       1      31      32      33      34
CQUAD4        18       1      32      35      36      33
CQUAD4        19       1      35      37      38      36
CQUAD4        20       1      37       1       4      38
$ ... 1516 like lines cut
$PROPERTIES
PSHELL         1       1      4.       1               1
$MATERIALS
MAT1           1  73100.              .3  2.78-9
$RIGID ELEMENTS
RBE3        1537            1443  123456      1.  123456    1198      1.
          123456    1199      1.  123456    1200      1.  123456    1210
              1.  123456    1211      1.  123456    1212      1.  123456
            1225      1.  123456    1226      1.  123456    1227      1.
          123456    1228      1.  123456    1241      1.  123456    1242
              1.  123456    1243      1.  123456    1244      1.  123456
            1254      1.  123456    1255      1.  123456    1256      1.
          123456    1285      1.  123456    1286      1.  123456    1287
              1.  123456    1288      1.  123456    1301      1.  123456
            1302      1.  123456    1303      1.  123456    1304      1.
          123456    1314      1.  123456    1315      1.  123456    1316
$LOADS
FORCE         11    1443              1.      0.      0.      1.
$DYNAMIC
EIGRL         12      0.               1
$SPCs
SPC1           1  123456       1       2       5      16      17      20
              31      32      35      37      51      52      55      57
              71      73      75      86      87      96      97     106
             108     110     112     126     128     130     132     146
             148     150     161     163     171     173    1333    1334
            1335    1336    1337    1338    1339    1340    1341    1342
            1343
