$pyNastran: version=msc
$pyNastran: punch=False
$pyNastran: encoding=utf-8
$pyNastran: nnodes=4307
$pyNastran: nelements=4464
$EXECUTIVE CONTROL DECK
SOL 105
CEND
$CASE CONTROL DECK
DISPLACEMENT(PLOT) = ALL
ECHO = NONE
OLOAD(PLOT) = ALL
SPC = 1
SUBCASE 1
    LOAD = 11
SUBCASE 2
    METHOD = 13
BEGIN BULK
$PARAMS
PARAM*              POST               1
*
$NODES
GRID*                  1                1.0000000000e+035.0000000000e+02
*       -1.000000000e+02                                                
GRID*                  2                1.0000000000e+035.0000000000e+02
*       -5.000000000e+01                                                
GRID*                  3                1.0000000000e+034.3750000000e+02
*       -5.000000000e+01                                                
GRID*                  4                1.0000000000e+034.3750000000e+02
*       -1.000000000e+02                                                
GRID*                  5                1.0000000000e+033.7500000000e+02
*       -5.000000000e+01                                                
GRID*                  6                1.0000000000e+033.7500000000e+02
*       -1.000000000e+02                                                
GRID*                  7                1.0000000000e+033.1250000000e+02
*       -5.000000000e+01                                                
GRID*                  8                1.0000000000e+033.1250000000e+02
*       -1.000000000e+02                                                
GRID*                  9                1.0000000000e+032.5000000000e+02
*       -5.000000000e+01                                                
GRID*                 10                1.0000000000e+032.5000000000e+02
*       -1.000000000e+02                                                
GRID*                 11                1.0000000000e+031.8750000000e+02
*       -5.000000000e+01                                                
GRID*                 12                1.0000000000e+031.8750000000e+02
*       -1.000000000e+02                                                
GRID*                 13                1.0000000000e+031.2500000000e+02
*       -5.000000000e+01                                                
GRID*                 14                1.0000000000e+031.2500000000e+02
*       -1.000000000e+02                                                
GRID*                 15                1.0000000000e+036.2500000000e+01
*       -5.000000000e+01                                                
GRID*                 16                1.0000000000e+036.2500000000e+01
*       -1.000000000e+02                                                
GRID*                 17                1.0000000000e+030.0000000000e+00
*       -5.000000000e+01                                                
GRID*                 18                1.0000000000e+030.0000000000e+00
*       -1.000000000e+02                                                
GRID*                 19                1.0000000000e+035.0000000000e+02
*       0.0000000000e+00                                                
GRID*                 20                1.0000000000e+034.3750000000e+02
*       0.0000000000e+00                                                
$ ... 8574 like lines cut
$ELEMENTS
CQUAD4*                1               1               1               2
*                      3               4                                
CQUAD4*                2               1               4               3
*                      5               6                                
CQUAD4*                3               1               6               5
*                      7               8                                
CQUAD4*                4               1               8               7
*                      9              10                                
CQUAD4*                5               1              10               9
*                     11              12                                
CQUAD4*                6               1              12              11
*                     13              14                                
CQUAD4*                7               1              14              13
*                     15              16                                
CQUAD4*                8               1              16              15
*                     17              18                                
CQUAD4*                9               1               2              19
*                     20               3                                
CQUAD4*               10               1               3              20
*                     21               5                                
CQUAD4*               11               1               5              21
*                     22               7                                
CQUAD4*               12               1               7              22
*                     23               9                                
CQUAD4*               13               1               9              23
*                     24              11                                
CQUAD4*               14               1              11              24
*                     25              13                                
CQUAD4*               15               1              13              25
*                     26              15                                
CQUAD4*               16               1              15              26
*                     27              17                                
CQUAD4*               17               1              19              28
*                     29              20                                
CQUAD4*               18               1              20              29
*                     30              21                                
CQUAD4*               19               1              21              30
*                     31              22                                
CQUAD4*               20               1              22              31
*                     32              23                                
$ ... 8888 like lines cut
$PROPERTIES
PSHELL*                1               1              4.               1
*                                      1
$MATERIALS
MAT1*                  1          73100.                              .3
*           .00000000278
$RIGID ELEMENTS
RBE3*               4465                            4307          123456
*                     1.          123456            3782              1.
*                 123456            3783              1.          123456
*                   3791              1.          123456            3799
*                     1.          123456            3807              1.
*                 123456            3808              1.          123456
*                   3809              1.          123456            3824
*                     1.          123456            3832              1.
*                 123456            3840              1.          123456
*                   3873              1.          123456            3881
*                     1.          123456            3889              1.
*                 123456            3897              1.          123456
*                   3905              1.          123456            3913
*                     1.          123456            3914              1.
*                 123456            3922              1.          123456
*                   3930              1.          123456            3938
*                     1.          123456            3946              1.
*                 123456            3954              1.          123456
*                   4019              1.          123456            4027
*                     1.          123456            4035              1.
*                 123456            4043              1.          123456
$ ... 13 like lines cut
$LOADS
FORCE*                11            4307                1.0000000000e+00
*       0.0000000000e+000.0000000000e+001.0000000000e+00
$DYNAMIC
EIGRL*                13              0.                               1
*
$SPCs
SPC1           1  123456      17      18      27      36      45      46
              47      48      49      50      51      52      53      54
              55      56      57      58      59      60      61      62
              63      64      65      66      67      68      69      70
              71      72      73      74      75      76      77      78
              79      80     193     194     211     212     229     230
             231     232     233     234     235     236     237     238
             239     240     241     242     243     244     245     246
             247     248     249     250     251     252     253     254
             255     256     257     258     355     356     373     374
             391     392     393     394     395     396     397     398
             399     400     401     402     403     404     405     406
             407     408     409     410     411     412     413     414
             415
