$pyNastran: version=msc
$pyNastran: punch=False
$pyNastran: encoding=utf-8
$pyNastran: nnodes=8563
$pyNastran: nelements=8784
$EXECUTIVE CONTROL DECK
SOL 106
CEND
$CASE CONTROL DECK
DISPLACEMENT(PLOT) = ALL
ECHO = NONE
NLPARM = 1
OLOAD(PLOT) = ALL
SPC = 1
SUBCASE 1
    LOAD = 12
BEGIN BULK
$PARAMS
PARAM     LGDISP       1
PARAM*              POST               1
*
$NODES
GRID*                  1                1.0000000000e+035.0000000000e+02
*       -1.000000000e+02                                                
GRID*                  2                1.0000000000e+035.0000000000e+02
*       -6.666666667e+01                                                
GRID*                  3                1.0000000000e+034.5833333333e+02
*       -6.666666667e+01                                                
GRID*                  4                1.0000000000e+034.5833333333e+02
*       -1.000000000e+02                                                
GRID*                  5                1.0000000000e+034.1666666667e+02
*       -6.666666667e+01                                                
GRID*                  6                1.0000000000e+034.1666666667e+02
*       -1.000000000e+02                                                
GRID*                  7                1.0000000000e+033.7500000000e+02
*       -6.666666667e+01                                                
GRID*                  8                1.0000000000e+033.7500000000e+02
*       -1.000000000e+02                                                
GRID*                  9                1.0000000000e+033.3333333333e+02
*       -6.666666667e+01                                                
GRID*                 10                1.0000000000e+033.3333333333e+02
*       -1.000000000e+02                                                
GRID*                 11                1.0000000000e+032.9166666667e+02
*       -6.666666667e+01                                                
GRID*                 12                1.0000000000e+032.9166666667e+02
*       -1.000000000e+02                                                
GRID*                 13                1.0000000000e+032.5000000000e+02
*       -6.666666667e+01                                                
GRID*                 14                1.0000000000e+032.5000000000e+02
*       -1.000000000e+02                                                
GRID*                 15                1.0000000000e+032.0833333333e+02
*       -6.666666667e+01                                                
GRID*                 16                1.0000000000e+032.0833333333e+02
*       -1.000000000e+02                                                
GRID*                 17                1.0000000000e+031.6666666667e+02
*       -6.666666667e+01                                                
GRID*                 18                1.0000000000e+031.6666666667e+02
*       -1.000000000e+02                                                
GRID*                 19                1.0000000000e+031.2500000000e+02
*       -6.666666667e+01                                                
GRID*                 20                1.0000000000e+031.2500000000e+02
*       -1.000000000e+02                                                
$ ... 17086 like lines cut
$ELEMENTS
CQUAD4*                1               1               1               2
*                      3               4                                
CQUAD4*                2               1               4               3
*                      5               6                                
CQUAD4*                3               1               6               5
*                      7               8                                
CQUAD4*                4               1               8               7
*                      9              10                                
CQUAD4*                5               1              10               9
*                     11              12                                
CQUAD4*                6               1              12              11
*                     13              14                                
CQUAD4*                7               1              14              13
*                     15              16                                
CQUAD4*                8               1              16              15
*                     17              18                                
CQUAD4*                9               1              18              17
*                     19              20                                
CQUAD4*               10               1              20              19
*                     21              22                                
CQUAD4*               11               1              22              21
*                     23              24                                
CQUAD4*               12               1              24              23
*                     25              26                                
CQUAD4*               13               1               2              27
*                     28               3                                
CQUAD4*               14               1               3              28
*                     29               5                                
CQUAD4*               15               1               5              29
*                     30               7                                
CQUAD4*               16               1               7              30
*                     31               9                                
CQUAD4*               17               1               9              31
*                     32              11                                
CQUAD4*               18               1              11              32
*                     33              13                                
CQUAD4*               19               1              13              33
*                     34              15                                
CQUAD4*               20               1              15              34
*                     35              17                                
$ ... 17528 like lines cut
$PROPERTIES
PSHELL*                1               1              4.               1
*                                      1
$MATERIALS
MAT1*                  1          73100.                              .3
*           .00000000278
$RIGID ELEMENTS
RBE3*               8785                            8563          123456
*                     1.          123456            7484              1.
*                 123456            7485              1.          123456
*                   7497              1.          123456            7509
*                     1.          123456            7521              1.
*                 123456            7533              1.          123456
*                   7545              1.          123456            7546
*                     1.          123456            7547              1.
*                 123456            7570              1.          123456
*                   7582              1.          123456            7594
*                     1.          123456            7606              1.
*                 123456            7618              1.          123456
*                   7681              1.          123456            7693
*                     1.          123456            7705              1.
*                 123456            7717              1.          123456
*                   7729              1.          123456            7741
*                     1.          123456            7753              1.
*                 123456            7765              1.          123456
*                   7766              1.          123456            7778
*                     1.          123456            7790              1.
*                 123456            7802              1.          123456
$ ... 25 like lines cut
$LOADS
LOAD*                 12              1.          16848.              11
*
FORCE*                11            8563                1.0000000000e+00
*       0.0000000000e+000.0000000000e+001.0000000000e+00
$DYNAMIC
NLPARM*                1             100                            ITER
*                     -1                                             YES
*                                   .001        .0000001
*
NLPCI*                 1            CRIS             .01              4.
*                     0.                               5              20
$SPCs
SPC1           1  123456      25      26      39      52      65      78
              91      92      93      94      95      96      97      98
              99     100     101     102     103     104     105     106
             107     108     109     110     111     112     113     114
             115     116     117     118     119     120     121     122
             123     124     125     126     127     128     129     130
             131     132     133     134     135     136     137     138
             139     140     141     142     143     144     145     146
             147     148     149     150     151     152     153     154
             371     372     397     398     423     424     425     426
             427     428     429     430     431     432     433     434
             435     436     437     438     439     440     441     442
             443     444     445     446     447     448     449     450
             451     452     453     454     455     456     457     458
             459     460     461     462     463     464     465     466
             467     468     469     470     471     472     473     474
             475     476     477     478     671     672     697     698
             723     724     725     726     727     728     729     730
             731     732     733     734     735     736     737     738
             739     740     741     742     743     744     745     746
             747     748     749     750     751     752     753     754
             755     756     757     758     759     760     761     762
             763     764     765     766     767     768     769     770
             771
