$pyNastran: version=msc
$pyNastran: punch=False
$pyNastran: encoding=utf-8
$pyNastran: nnodes=8563
$pyNastran: nelements=8784
$EXECUTIVE CONTROL DECK
SOL 106
CEND
$CASE CONTROL DECK
DISPLACEMENT(PLOT) = ALL
ECHO = NONE
NLPARM = 1
OLOAD(PLOT) = ALL
SPC = 1
SUBCASE 1
    LOAD = 12
BEGIN BULK
$PARAMS
PARAM     LGDISP       1
PARAM       POST       1
$NODES
GRID           1         1.11-14-1.526-599.99998
GRID           2        7.401-15      0.66.66665
GRID           3        7.401-1541.6666766.66665
GRID           4         1.11-1441.6666699.99998
GRID           5        3.701-15      0.33.33331
GRID           6        3.701-1541.6666733.33332
GRID           7              0.      0.  -2.5-5
GRID           8              0.41.66667-2.083-5
GRID           9         -3.7-15      0.-33.3334
GRID          10         -3.7-1541.66667-33.3334
GRID          11         -7.4-15      0.-66.6667
GRID          12         -7.4-1541.66667-66.6667
GRID          13        -1.11-141.5259-5   -100.
GRID          14        -1.11-1441.66669   -100.
GRID          15        7.401-1583.3333366.66666
GRID          16         1.11-1483.3333199.99998
GRID          17        3.701-1583.3333333.33332
GRID          18              0.83.33333-1.667-5
GRID          19         -3.7-1583.33333-33.3334
GRID          20         -7.4-1583.33333-66.6667
$ ... 8543 like lines cut
$ELEMENTS
CQUAD4         1       1       1       2       3       4
CQUAD4         2       1       2       5       6       3
CQUAD4         3       1       5       7       8       6
CQUAD4         4       1       7       9      10       8
CQUAD4         5       1       9      11      12      10
CQUAD4         6       1      11      13      14      12
CQUAD4         7       1       4       3      15      16
CQUAD4         8       1       3       6      17      15
CQUAD4         9       1       6       8      18      17
CQUAD4        10       1       8      10      19      18
CQUAD4        11       1      10      12      20      19
CQUAD4        12       1      12      14      21      20
CQUAD4        13       1      16      15      22      23
CQUAD4        14       1      15      17      24      22
CQUAD4        15       1      17      18      25      24
CQUAD4        16       1      18      19      26      25
CQUAD4        17       1      19      20      27      26
CQUAD4        18       1      20      21      28      27
CQUAD4        19       1      23      22      29      30
CQUAD4        20       1      22      24      31      29
$ ... 8764 like lines cut
$PROPERTIES
PSHELL         1       1      4.       1               1
$MATERIALS
MAT1           1  73100.              .3  2.78-9
$RIGID ELEMENTS
RBE3        8785            8563  123456      1.  123456    6674      1.
          123456    6675      1.  123456    6676      1.  123456    6677
              1.  123456    6678      1.  123456    6679      1.  123456
            6680      1.  123456    6758      1.  123456    6759      1.
          123456    6760      1.  123456    6761      1.  123456    6762
              1.  123456    6763      1.  123456    6764      1.  123456
            6853      1.  123456    6854      1.  123456    6855      1.
          123456    6856      1.  123456    6857      1.  123456    6858
              1.  123456    6859      1.  123456    6860      1.  123456
            6949      1.  123456    6950      1.  123456    6951      1.
          123456    6952      1.  123456    6953      1.  123456    6954
              1.  123456    6955      1.  123456    6956      1.  123456
            7034      1.  123456    7035      1.  123456    7036      1.
          123456    7037      1.  123456    7038      1.  123456    7039
              1.  123456    7040      1.  123456    7177      1.  123456
            7178      1.  123456    7179      1.  123456    7180      1.
          123456    7181      1.  123456    7182      1.  123456    7183
              1.  123456    7184      1.  123456    7273      1.  123456
            7274      1.  123456    7275      1.  123456    7276      1.
          123456    7277      1.  123456    7278      1.  123456    7279
              1.  123456    7280      1.  123456    7358      1.  123456
            7359      1.  123456    7360      1.  123456    7361      1.
          123456    7362      1.  123456    7363      1.  123456    7364
$LOADS
<<<<<<< HEAD
LOAD          12      1.  16848.      11
FORCE         11    8563              1.      0.      0.      1.
$DYNAMIC
NLPARM         1                    ITER      -1             PWU     YES
=======
LOAD          12      1.16847.75      11
FORCE         11    8563              1.      0.      0.      1.
$DYNAMIC
NLPARM         1                    ITER       1             PWU     YES
>>>>>>> d2002a135fdb8efee1c4c5a77d2f73789305adf5
NLPCI          1    CRIS     .25      4.      0.              12      20
$SPCs
SPC1           1  123456       1       2       5       7       9      11
              13      92      93      96      98     100     102     104
             183     184     187     189     191     193     195     197
             287     288     291     293     295     297     299     301
             391     393     395     397     399     401     403     482
             483     508     509     534     536     538     540     542
             544     546     548     638     640     642     644     646
             648     650     652     742     744     746     748     750
             752     754     833     835     859     861    7413    7414
            7415    7416    7417    7418    7419    7420    7421    7422
            7423    7424    7425    7426    7427    7428    7429    7430
            7431    7432    7433    7434    7435    7436    7437    7438
            7439    7440    7441    7442    7443    7444    7445    7446
            7447    7448    7449    7450    7451    7452    7453    7454
            7455    7456    7457    7458    7459    7460    7461    7462
            7463    7464    7465    7466    7467    7468    7469    7470
            7471    7472    7473    7474    7475    7476    7477    7478
            7479    7480    7481    7482    7483    7484    7485    7486
            7487    7488    7489    7490    7491    7492    7493    7494
            7495    7496    7497    7498    7499    7500    7501    7502
            7503    7504    7505    7506    7507    7508    7509    7510
            7511    7512    7513    7514    7515    7516    7517    7518
            7519    7520    7521    7522    7523    7524    7525    7526
            7527
